/*---------------------------------------------------------------------------*\
  =========                 |
  \\      /  F ield         | OpenFOAM: The Open Source CFD Toolbox
   \\    /   O peration     | Website:  https://openfoam.org
    \\  /    A nd           | Version:  13
     \\/     M anipulation  |
\*---------------------------------------------------------------------------*/
Build  : 13-441953dfbb42
Exec   : foamRun
Date   : Jul 20 2026
Time   : 20:45:29
Host   : "ca88864b50ef"
PID    : 197
I/O    : uncollated
Case   : /work/of_case
nProcs : 1
sigFpe : Floating point exception trapping - not supported on this platform
fileModificationChecking : Monitoring run-time modified files using timeStampMaster (fileModificationSkew 10)
allowSystemOperations : Allowing user-supplied system call operations

// * * * * * * * * * * * * * * * * * * * * * * * * * * * * * * * * * * * * * //
Create time

Create mesh for time = 0

Selecting solver incompressibleFluid
Selecting viscosity model constant
Selecting turbulence model type RAS
    Selecting RAS turbulence model kOmegaSST
        Selecting generalised Newtonian model Newtonian
No MRF models present

Selecting patchDistMethod meshWave

SIMPLE: Convergence criteria found
        p: tolerance 0.01
        U: tolerance 0.001
        "(k|epsilon|omega|f|v2)": tolerance 0.001


SIMPLE: Operating solver in steady-state mode with 1 outer corrector
SIMPLE: Operating solver in SIMPLE mode



Starting time loop

Time = 1s

smoothSolver:  Solving for Ux, Initial residual = 1, Final residual = 0.0157595, No Iterations 1
smoothSolver:  Solving for Uy, Initial residual = 1, Final residual = 0.0157213, No Iterations 1
GAMG:  Solving for p, Initial residual = 1, Final residual = 0.0684225, No Iterations 17
time step continuity errors : sum local = 1.19725, global = 0.179864, cumulative = 0.179864
smoothSolver:  Solving for omega, Initial residual = 0.148874, Final residual = 0.00844763, No Iterations 3
smoothSolver:  Solving for k, Initial residual = 1, Final residual = 0.0560863, No Iterations 3
ExecutionTime = 0.159601 s  ClockTime = 0 s

Time = 2s

smoothSolver:  Solving for Ux, Initial residual = 0.489611, Final residual = 0.0449631, No Iterations 4
smoothSolver:  Solving for Uy, Initial residual = 0.343711, Final residual = 0.0282245, No Iterations 4
GAMG:  Solving for p, Initial residual = 0.04297, Final residual = 0.00381398, No Iterations 13
time step continuity errors : sum local = 6.06479, global = 0.132489, cumulative = 0.312353
smoothSolver:  Solving for omega, Initial residual = 0.0526696, Final residual = 0.00138223, No Iterations 2
smoothSolver:  Solving for k, Initial residual = 0.279259, Final residual = 0.0106492, No Iterations 2
ExecutionTime = 0.181731 s  ClockTime = 0 s

Time = 3s

smoothSolver:  Solving for Ux, Initial residual = 0.152826, Final residual = 0.0112204, No Iterations 4
smoothSolver:  Solving for Uy, Initial residual = 0.247687, Final residual = 0.0234336, No Iterations 3
GAMG:  Solving for p, Initial residual = 0.129819, Final residual = 0.0123902, No Iterations 6
time step continuity errors : sum local = 5.04342, global = 0.446018, cumulative = 0.758371
smoothSolver:  Solving for omega, Initial residual = 0.0449649, Final residual = 0.000871954, No Iterations 2
smoothSolver:  Solving for k, Initial residual = 0.150475, Final residual = 0.00649775, No Iterations 2
ExecutionTime = 0.198487 s  ClockTime = 0 s

Time = 4s

smoothSolver:  Solving for Ux, Initial residual = 0.0890583, Final residual = 0.00681723, No Iterations 4
smoothSolver:  Solving for Uy, Initial residual = 0.152491, Final residual = 0.0149946, No Iterations 3
GAMG:  Solving for p, Initial residual = 0.110831, Final residual = 0.00856726, No Iterations 8
time step continuity errors : sum local = 1.9677, global = -0.0130632, cumulative = 0.745308
smoothSolver:  Solving for omega, Initial residual = 0.0240779, Final residual = 0.000915824, No Iterations 2
smoothSolver:  Solving for k, Initial residual = 0.109635, Final residual = 0.0058772, No Iterations 2
ExecutionTime = 0.216318 s  ClockTime = 0 s

Time = 5s

smoothSolver:  Solving for Ux, Initial residual = 0.0724494, Final residual = 0.00618647, No Iterations 4
smoothSolver:  Solving for Uy, Initial residual = 0.135455, Final residual = 0.00936521, No Iterations 4
GAMG:  Solving for p, Initial residual = 0.124941, Final residual = 0.0118057, No Iterations 4
time step continuity errors : sum local = 1.49131, global = -0.141806, cumulative = 0.603502
smoothSolver:  Solving for omega, Initial residual = 0.0179271, Final residual = 0.000798178, No Iterations 2
smoothSolver:  Solving for k, Initial residual = 0.0957606, Final residual = 0.00568206, No Iterations 2
ExecutionTime = 0.231465 s  ClockTime = 0 s

Time = 6s

smoothSolver:  Solving for Ux, Initial residual = 0.0629235, Final residual = 0.00592783, No Iterations 4
smoothSolver:  Solving for Uy, Initial residual = 0.106347, Final residual = 0.00872151, No Iterations 4
GAMG:  Solving for p, Initial residual = 0.106049, Final residual = 0.00943092, No Iterations 5
time step continuity errors : sum local = 1.09603, global = 0.160396, cumulative = 0.763898
smoothSolver:  Solving for omega, Initial residual = 0.01544, Final residual = 0.000669231, No Iterations 2
smoothSolver:  Solving for k, Initial residual = 0.0813709, Final residual = 0.00519358, No Iterations 2
ExecutionTime = 0.247551 s  ClockTime = 0 s

Time = 7s

smoothSolver:  Solving for Ux, Initial residual = 0.0562779, Final residual = 0.00347438, No Iterations 5
smoothSolver:  Solving for Uy, Initial residual = 0.0863875, Final residual = 0.00791043, No Iterations 4
GAMG:  Solving for p, Initial residual = 0.0956656, Final residual = 0.00773737, No Iterations 4
time step continuity errors : sum local = 0.90245, global = -0.112866, cumulative = 0.651033
smoothSolver:  Solving for omega, Initial residual = 0.0135968, Final residual = 0.000668923, No Iterations 2
smoothSolver:  Solving for k, Initial residual = 0.0724204, Final residual = 0.00464507, No Iterations 2
ExecutionTime = 0.262701 s  ClockTime = 0 s

Time = 8s

smoothSolver:  Solving for Ux, Initial residual = 0.0505539, Final residual = 0.00331876, No Iterations 5
smoothSolver:  Solving for Uy, Initial residual = 0.0844027, Final residual = 0.00766407, No Iterations 4
GAMG:  Solving for p, Initial residual = 0.0931838, Final residual = 0.00626876, No Iterations 4
time step continuity errors : sum local = 0.741033, global = -0.099839, cumulative = 0.551194
smoothSolver:  Solving for omega, Initial residual = 0.0123964, Final residual = 0.000628642, No Iterations 2
smoothSolver:  Solving for k, Initial residual = 0.0618249, Final residual = 0.00393521, No Iterations 2
ExecutionTime = 0.278507 s  ClockTime = 0 s

Time = 9s

smoothSolver:  Solving for Ux, Initial residual = 0.0470716, Final residual = 0.00312587, No Iterations 5
smoothSolver:  Solving for Uy, Initial residual = 0.0806652, Final residual = 0.00741107, No Iterations 4
GAMG:  Solving for p, Initial residual = 0.0929695, Final residual = 0.00686387, No Iterations 4
time step continuity errors : sum local = 0.774313, global = -0.116708, cumulative = 0.434485
smoothSolver:  Solving for omega, Initial residual = 0.0123991, Final residual = 0.000573001, No Iterations 2
smoothSolver:  Solving for k, Initial residual = 0.058044, Final residual = 0.00378528, No Iterations 2
ExecutionTime = 0.293971 s  ClockTime = 0 s

Time = 10s

smoothSolver:  Solving for Ux, Initial residual = 0.0440628, Final residual = 0.00291449, No Iterations 5
smoothSolver:  Solving for Uy, Initial residual = 0.0764486, Final residual = 0.00714562, No Iterations 4
GAMG:  Solving for p, Initial residual = 0.0948081, Final residual = 0.00757937, No Iterations 4
time step continuity errors : sum local = 0.827084, global = -0.131642, cumulative = 0.302843
smoothSolver:  Solving for omega, Initial residual = 0.336033, Final residual = 0.0325826, No Iterations 1
smoothSolver:  Solving for k, Initial residual = 0.109726, Final residual = 0.00315002, No Iterations 2
ExecutionTime = 0.309892 s  ClockTime = 0 s

Time = 11s

smoothSolver:  Solving for Ux, Initial residual = 0.0408358, Final residual = 0.00270949, No Iterations 5
smoothSolver:  Solving for Uy, Initial residual = 0.0755712, Final residual = 0.00707369, No Iterations 4
GAMG:  Solving for p, Initial residual = 0.0941885, Final residual = 0.00788373, No Iterations 4
time step continuity errors : sum local = 0.81418, global = -0.131395, cumulative = 0.171448
smoothSolver:  Solving for omega, Initial residual = 0.793345, Final residual = 0.000113069, No Iterations 1
smoothSolver:  Solving for k, Initial residual = 0.0511206, Final residual = 0.00314353, No Iterations 2
ExecutionTime = 0.32554 s  ClockTime = 0 s

Time = 12s

smoothSolver:  Solving for Ux, Initial residual = 0.037859, Final residual = 0.00250497, No Iterations 5
smoothSolver:  Solving for Uy, Initial residual = 0.0760533, Final residual = 0.00712642, No Iterations 4
GAMG:  Solving for p, Initial residual = 0.0970534, Final residual = 0.00762212, No Iterations 4
time step continuity errors : sum local = 0.744789, global = -0.117661, cumulative = 0.0537871
smoothSolver:  Solving for omega, Initial residual = 0.324362, Final residual = 0.00259506, No Iterations 1
smoothSolver:  Solving for k, Initial residual = 0.0494511, Final residual = 0.00309323, No Iterations 2
ExecutionTime = 0.340589 s  ClockTime = 0 s

Time = 13s

smoothSolver:  Solving for Ux, Initial residual = 0.0353614, Final residual = 0.00232883, No Iterations 5
smoothSolver:  Solving for Uy, Initial residual = 0.0763125, Final residual = 0.00730656, No Iterations 4
GAMG:  Solving for p, Initial residual = 0.0943408, Final residual = 0.00719462, No Iterations 4
time step continuity errors : sum local = 0.666793, global = -0.10032, cumulative = -0.0465332
smoothSolver:  Solving for omega, Initial residual = 0.0223347, Final residual = 0.000674272, No Iterations 2
smoothSolver:  Solving for k, Initial residual = 0.0468092, Final residual = 0.00273326, No Iterations 2
ExecutionTime = 0.356381 s  ClockTime = 0 s

Time = 14s

smoothSolver:  Solving for Ux, Initial residual = 0.0330955, Final residual = 0.00216398, No Iterations 5
smoothSolver:  Solving for Uy, Initial residual = 0.0760404, Final residual = 0.00753246, No Iterations 4
GAMG:  Solving for p, Initial residual = 0.0923474, Final residual = 0.00680615, No Iterations 4
time step continuity errors : sum local = 0.614277, global = -0.0865748, cumulative = -0.133108
smoothSolver:  Solving for omega, Initial residual = 0.012918, Final residual = 0.000717803, No Iterations 2
smoothSolver:  Solving for k, Initial residual = 0.0443452, Final residual = 0.00250664, No Iterations 2
ExecutionTime = 0.371823 s  ClockTime = 0 s

Time = 15s

smoothSolver:  Solving for Ux, Initial residual = 0.0312977, Final residual = 0.0020259, No Iterations 5
smoothSolver:  Solving for Uy, Initial residual = 0.0758393, Final residual = 0.00470901, No Iterations 5
GAMG:  Solving for p, Initial residual = 0.0919832, Final residual = 0.00719957, No Iterations 4
time step continuity errors : sum local = 0.616858, global = -0.0868605, cumulative = -0.219968
smoothSolver:  Solving for omega, Initial residual = 0.11076, Final residual = 0.00829778, No Iterations 1
smoothSolver:  Solving for k, Initial residual = 0.0506229, Final residual = 0.00220584, No Iterations 2
bounding k, min: -0.0425382 max: 2.52174 average: 0.549824
ExecutionTime = 0.388102 s  ClockTime = 0 s

Time = 16s

smoothSolver:  Solving for Ux, Initial residual = 0.0296739, Final residual = 0.00190646, No Iterations 5
smoothSolver:  Solving for Uy, Initial residual = 0.0747049, Final residual = 0.00478199, No Iterations 5
GAMG:  Solving for p, Initial residual = 0.0902276, Final residual = 0.00738138, No Iterations 4
time step continuity errors : sum local = 0.6208, global = -0.0890555, cumulative = -0.309024
smoothSolver:  Solving for omega, Initial residual = 0.673729, Final residual = 0.000611352, No Iterations 1
smoothSolver:  Solving for k, Initial residual = 0.0404014, Final residual = 0.00208557, No Iterations 2
ExecutionTime = 0.418808 s  ClockTime = 0 s

Time = 17s

smoothSolver:  Solving for Ux, Initial residual = 0.0281701, Final residual = 0.0017923, No Iterations 5
smoothSolver:  Solving for Uy, Initial residual = 0.0737221, Final residual = 0.00485288, No Iterations 5
GAMG:  Solving for p, Initial residual = 0.0878915, Final residual = 0.00737062, No Iterations 4
time step continuity errors : sum local = 0.602383, global = -0.0819131, cumulative = -0.390937
smoothSolver:  Solving for omega, Initial residual = 0.0583078, Final residual = 0.00211044, No Iterations 1
smoothSolver:  Solving for k, Initial residual = 0.0392293, Final residual = 0.00186, No Iterations 2
bounding k, min: -0.0312816 max: 3.24762 average: 0.575735
ExecutionTime = 0.437662 s  ClockTime = 0 s

Time = 18s

smoothSolver:  Solving for Ux, Initial residual = 0.0267562, Final residual = 0.00168638, No Iterations 5
smoothSolver:  Solving for Uy, Initial residual = 0.0723605, Final residual = 0.00488633, No Iterations 5
GAMG:  Solving for p, Initial residual = 0.0876433, Final residual = 0.00766659, No Iterations 4
time step continuity errors : sum local = 0.610378, global = -0.084094, cumulative = -0.475031
smoothSolver:  Solving for omega, Initial residual = 0.0120932, Final residual = 0.000488592, No Iterations 2
smoothSolver:  Solving for k, Initial residual = 0.0364969, Final residual = 0.00165132, No Iterations 2
ExecutionTime = 0.454678 s  ClockTime = 0 s

Time = 19s

smoothSolver:  Solving for Ux, Initial residual = 0.0252895, Final residual = 0.00158476, No Iterations 5
smoothSolver:  Solving for Uy, Initial residual = 0.0703713, Final residual = 0.00486996, No Iterations 5
GAMG:  Solving for p, Initial residual = 0.0889114, Final residual = 0.00764684, No Iterations 4
time step continuity errors : sum local = 0.588932, global = -0.0799663, cumulative = -0.554997
smoothSolver:  Solving for omega, Initial residual = 0.00799487, Final residual = 0.000345507, No Iterations 2
smoothSolver:  Solving for k, Initial residual = 0.0360009, Final residual = 0.00152074, No Iterations 2
ExecutionTime = 0.470912 s  ClockTime = 0 s

Time = 20s

smoothSolver:  Solving for Ux, Initial residual = 0.0238246, Final residual = 0.00149044, No Iterations 5
smoothSolver:  Solving for Uy, Initial residual = 0.0679324, Final residual = 0.00480923, No Iterations 5
GAMG:  Solving for p, Initial residual = 0.0903783, Final residual = 0.00747977, No Iterations 4
time step continuity errors : sum local = 0.556263, global = -0.0744161, cumulative = -0.629413
smoothSolver:  Solving for omega, Initial residual = 0.00805073, Final residual = 0.000332273, No Iterations 2
smoothSolver:  Solving for k, Initial residual = 0.0342973, Final residual = 0.00143209, No Iterations 2
ExecutionTime = 0.487845 s  ClockTime = 0 s

Time = 21s

smoothSolver:  Solving for Ux, Initial residual = 0.0224744, Final residual = 0.00140296, No Iterations 5
smoothSolver:  Solving for Uy, Initial residual = 0.0651819, Final residual = 0.00470557, No Iterations 5
GAMG:  Solving for p, Initial residual = 0.0907562, Final residual = 0.00729814, No Iterations 4
time step continuity errors : sum local = 0.530724, global = -0.0714634, cumulative = -0.700877
smoothSolver:  Solving for omega, Initial residual = 0.00750047, Final residual = 0.000290657, No Iterations 2
smoothSolver:  Solving for k, Initial residual = 0.0327681, Final residual = 0.0012669, No Iterations 2
ExecutionTime = 0.504311 s  ClockTime = 0 s

Time = 22s

smoothSolver:  Solving for Ux, Initial residual = 0.0211803, Final residual = 0.00131808, No Iterations 5
smoothSolver:  Solving for Uy, Initial residual = 0.0620925, Final residual = 0.00455993, No Iterations 5
GAMG:  Solving for p, Initial residual = 0.0898247, Final residual = 0.00683755, No Iterations 4
time step continuity errors : sum local = 0.489463, global = -0.0610717, cumulative = -0.761949
smoothSolver:  Solving for omega, Initial residual = 0.0068645, Final residual = 0.000298629, No Iterations 2
smoothSolver:  Solving for k, Initial residual = 0.0318373, Final residual = 0.00123904, No Iterations 2
ExecutionTime = 0.520721 s  ClockTime = 0 s

Time = 23s

smoothSolver:  Solving for Ux, Initial residual = 0.0199004, Final residual = 0.00123815, No Iterations 5
smoothSolver:  Solving for Uy, Initial residual = 0.0587961, Final residual = 0.00437292, No Iterations 5
GAMG:  Solving for p, Initial residual = 0.0883582, Final residual = 0.00647022, No Iterations 4
time step continuity errors : sum local = 0.456658, global = -0.0472532, cumulative = -0.809202
smoothSolver:  Solving for omega, Initial residual = 0.00692139, Final residual = 0.000285861, No Iterations 2
smoothSolver:  Solving for k, Initial residual = 0.0307687, Final residual = 0.00115934, No Iterations 2
ExecutionTime = 0.536611 s  ClockTime = 0 s

Time = 24s

smoothSolver:  Solving for Ux, Initial residual = 0.0186178, Final residual = 0.00116439, No Iterations 5
smoothSolver:  Solving for Uy, Initial residual = 0.0552287, Final residual = 0.00415157, No Iterations 5
GAMG:  Solving for p, Initial residual = 0.0859537, Final residual = 0.00622448, No Iterations 4
time step continuity errors : sum local = 0.436075, global = -0.0349042, cumulative = -0.844106
smoothSolver:  Solving for omega, Initial residual = 0.00667402, Final residual = 0.000259123, No Iterations 2
smoothSolver:  Solving for k, Initial residual = 0.0290333, Final residual = 0.00114402, No Iterations 2
ExecutionTime = 0.5534 s  ClockTime = 0 s

Time = 25s

smoothSolver:  Solving for Ux, Initial residual = 0.0173971, Final residual = 0.00109519, No Iterations 5
smoothSolver:  Solving for Uy, Initial residual = 0.0514826, Final residual = 0.00390081, No Iterations 5
GAMG:  Solving for p, Initial residual = 0.0842835, Final residual = 0.00618404, No Iterations 4
time step continuity errors : sum local = 0.428836, global = -0.0314729, cumulative = -0.875579
smoothSolver:  Solving for omega, Initial residual = 0.283466, Final residual = 0.00492002, No Iterations 2
smoothSolver:  Solving for k, Initial residual = 0.0483591, Final residual = 0.00482704, No Iterations 1
ExecutionTime = 0.569321 s  ClockTime = 0 s

Time = 26s

smoothSolver:  Solving for Ux, Initial residual = 0.0164466, Final residual = 0.00103693, No Iterations 5
smoothSolver:  Solving for Uy, Initial residual = 0.047921, Final residual = 0.00364084, No Iterations 5
GAMG:  Solving for p, Initial residual = 0.0821072, Final residual = 0.00608727, No Iterations 4
time step continuity errors : sum local = 0.419567, global = -0.0351227, cumulative = -0.910702
smoothSolver:  Solving for omega, Initial residual = 0.766377, Final residual = 0.000133637, No Iterations 1
smoothSolver:  Solving for k, Initial residual = 0.0290593, Final residual = 0.001179, No Iterations 2
ExecutionTime = 0.585283 s  ClockTime = 0 s

Time = 27s

smoothSolver:  Solving for Ux, Initial residual = 0.0153927, Final residual = 0.000977083, No Iterations 5
smoothSolver:  Solving for Uy, Initial residual = 0.0445553, Final residual = 0.00338229, No Iterations 5
GAMG:  Solving for p, Initial residual = 0.0797345, Final residual = 0.00581167, No Iterations 4
time step continuity errors : sum local = 0.398207, global = -0.0404666, cumulative = -0.951168
smoothSolver:  Solving for omega, Initial residual = 0.19237, Final residual = 0.00191095, No Iterations 1
smoothSolver:  Solving for k, Initial residual = 0.0269831, Final residual = 0.00115642, No Iterations 2
ExecutionTime = 0.60097 s  ClockTime = 0 s

Time = 28s

smoothSolver:  Solving for Ux, Initial residual = 0.0145427, Final residual = 0.000931048, No Iterations 5
smoothSolver:  Solving for Uy, Initial residual = 0.0414949, Final residual = 0.00315003, No Iterations 5
GAMG:  Solving for p, Initial residual = 0.0770636, Final residual = 0.00537266, No Iterations 4
time step continuity errors : sum local = 0.370694, global = -0.0459808, cumulative = -0.997149
smoothSolver:  Solving for omega, Initial residual = 0.0214087, Final residual = 0.000884404, No Iterations 2
smoothSolver:  Solving for k, Initial residual = 0.0267178, Final residual = 0.00113862, No Iterations 2
ExecutionTime = 0.617031 s  ClockTime = 0 s

Time = 29s

smoothSolver:  Solving for Ux, Initial residual = 0.0137974, Final residual = 0.000892636, No Iterations 5
smoothSolver:  Solving for Uy, Initial residual = 0.0388856, Final residual = 0.00295962, No Iterations 5
GAMG:  Solving for p, Initial residual = 0.0738032, Final residual = 0.00495097, No Iterations 4
time step continuity errors : sum local = 0.349684, global = -0.0462175, cumulative = -1.04337
smoothSolver:  Solving for omega, Initial residual = 0.0163842, Final residual = 0.00163612, No Iterations 1
smoothSolver:  Solving for k, Initial residual = 0.0253042, Final residual = 0.0010688, No Iterations 2
ExecutionTime = 0.633109 s  ClockTime = 0 s

Time = 30s

smoothSolver:  Solving for Ux, Initial residual = 0.0132217, Final residual = 0.000862769, No Iterations 5
smoothSolver:  Solving for Uy, Initial residual = 0.0368727, Final residual = 0.00281403, No Iterations 5
GAMG:  Solving for p, Initial residual = 0.0726163, Final residual = 0.004629, No Iterations 4
time step continuity errors : sum local = 0.334563, global = -0.0418943, cumulative = -1.08526
smoothSolver:  Solving for omega, Initial residual = 0.210479, Final residual = 0.00915144, No Iterations 2
smoothSolver:  Solving for k, Initial residual = 0.0344312, Final residual = 0.000995712, No Iterations 2
ExecutionTime = 0.649348 s  ClockTime = 0 s

Time = 31s

smoothSolver:  Solving for Ux, Initial residual = 0.012756, Final residual = 0.00084105, No Iterations 5
smoothSolver:  Solving for Uy, Initial residual = 0.0355241, Final residual = 0.0027116, No Iterations 5
GAMG:  Solving for p, Initial residual = 0.0713555, Final residual = 0.00711472, No Iterations 3
time step continuity errors : sum local = 0.524581, global = 0.0679436, cumulative = -1.01732
smoothSolver:  Solving for omega, Initial residual = 0.780176, Final residual = 0.000154786, No Iterations 1
smoothSolver:  Solving for k, Initial residual = 0.0235991, Final residual = 0.000971872, No Iterations 2
ExecutionTime = 0.66405 s  ClockTime = 0 s

Time = 32s

smoothSolver:  Solving for Ux, Initial residual = 0.0124491, Final residual = 0.000832671, No Iterations 5
smoothSolver:  Solving for Uy, Initial residual = 0.0343821, Final residual = 0.00263823, No Iterations 5
GAMG:  Solving for p, Initial residual = 0.071648, Final residual = 0.00694535, No Iterations 3
time step continuity errors : sum local = 0.519132, global = -0.0693773, cumulative = -1.08669
smoothSolver:  Solving for omega, Initial residual = 0.212167, Final residual = 0.00173301, No Iterations 1
smoothSolver:  Solving for k, Initial residual = 0.0228601, Final residual = 0.000965683, No Iterations 2
ExecutionTime = 0.679291 s  ClockTime = 0 s

Time = 33s

smoothSolver:  Solving for Ux, Initial residual = 0.0121771, Final residual = 0.000825572, No Iterations 5
smoothSolver:  Solving for Uy, Initial residual = 0.0340186, Final residual = 0.00261241, No Iterations 5
GAMG:  Solving for p, Initial residual = 0.0706667, Final residual = 0.00670353, No Iterations 3
time step continuity errors : sum local = 0.514414, global = 0.0805415, cumulative = -1.00615
smoothSolver:  Solving for omega, Initial residual = 0.0142375, Final residual = 0.000327526, No Iterations 2
smoothSolver:  Solving for k, Initial residual = 0.0218474, Final residual = 0.000914829, No Iterations 2
ExecutionTime = 0.69419 s  ClockTime = 0 s

Time = 34s

smoothSolver:  Solving for Ux, Initial residual = 0.0120184, Final residual = 0.000831439, No Iterations 5
smoothSolver:  Solving for Uy, Initial residual = 0.0339672, Final residual = 0.00260422, No Iterations 5
GAMG:  Solving for p, Initial residual = 0.07083, Final residual = 0.00689653, No Iterations 3
time step continuity errors : sum local = 0.53758, global = -0.0833967, cumulative = -1.08955
smoothSolver:  Solving for omega, Initial residual = 0.00772683, Final residual = 0.000295716, No Iterations 2
smoothSolver:  Solving for k, Initial residual = 0.0207717, Final residual = 0.000872748, No Iterations 2
ExecutionTime = 0.710111 s  ClockTime = 0 s

Time = 35s

smoothSolver:  Solving for Ux, Initial residual = 0.0119598, Final residual = 0.000844887, No Iterations 5
smoothSolver:  Solving for Uy, Initial residual = 0.0340125, Final residual = 0.00260521, No Iterations 5
GAMG:  Solving for p, Initial residual = 0.0707912, Final residual = 0.00696647, No Iterations 3
time step continuity errors : sum local = 0.555177, global = 0.0889857, cumulative = -1.00056
smoothSolver:  Solving for omega, Initial residual = 0.0314618, Final residual = 0.00145438, No Iterations 2
smoothSolver:  Solving for k, Initial residual = 0.021161, Final residual = 0.000843369, No Iterations 2
ExecutionTime = 0.72561 s  ClockTime = 0 s

Time = 36s

smoothSolver:  Solving for Ux, Initial residual = 0.011907, Final residual = 0.000852344, No Iterations 5
smoothSolver:  Solving for Uy, Initial residual = 0.0345517, Final residual = 0.00263463, No Iterations 5
GAMG:  Solving for p, Initial residual = 0.0718422, Final residual = 0.00472515, No Iterations 4
time step continuity errors : sum local = 0.381221, global = 0.0440912, cumulative = -0.956473
smoothSolver:  Solving for omega, Initial residual = 0.241072, Final residual = 0.0140897, No Iterations 1
smoothSolver:  Solving for k, Initial residual = 0.0268274, Final residual = 0.000827413, No Iterations 2
ExecutionTime = 0.742235 s  ClockTime = 1 s

Time = 37s

smoothSolver:  Solving for Ux, Initial residual = 0.0118867, Final residual = 0.000861565, No Iterations 5
smoothSolver:  Solving for Uy, Initial residual = 0.0350362, Final residual = 0.00266385, No Iterations 5
GAMG:  Solving for p, Initial residual = 0.070634, Final residual = 0.00689961, No Iterations 3
time step continuity errors : sum local = 0.570837, global = -0.0940805, cumulative = -1.05055
smoothSolver:  Solving for omega, Initial residual = 0.744355, Final residual = 0.000194345, No Iterations 1
smoothSolver:  Solving for k, Initial residual = 0.019237, Final residual = 0.000868037, No Iterations 2
ExecutionTime = 0.757303 s  ClockTime = 1 s

Time = 38s

smoothSolver:  Solving for Ux, Initial residual = 0.011951, Final residual = 0.000875598, No Iterations 5
smoothSolver:  Solving for Uy, Initial residual = 0.0353, Final residual = 0.00267329, No Iterations 5
GAMG:  Solving for p, Initial residual = 0.0713342, Final residual = 0.00677662, No Iterations 3
time step continuity errors : sum local = 0.579065, global = 0.0996443, cumulative = -0.950909
smoothSolver:  Solving for omega, Initial residual = 0.118006, Final residual = 0.00156612, No Iterations 1
smoothSolver:  Solving for k, Initial residual = 0.0188829, Final residual = 0.000851462, No Iterations 2
ExecutionTime = 0.772779 s  ClockTime = 1 s

Time = 39s

smoothSolver:  Solving for Ux, Initial residual = 0.011987, Final residual = 0.000880891, No Iterations 5
smoothSolver:  Solving for Uy, Initial residual = 0.0357171, Final residual = 0.00268859, No Iterations 5
GAMG:  Solving for p, Initial residual = 0.0718497, Final residual = 0.00490359, No Iterations 4
time step continuity errors : sum local = 0.424998, global = 0.0549558, cumulative = -0.895953
smoothSolver:  Solving for omega, Initial residual = 0.118175, Final residual = 0.00719365, No Iterations 2
smoothSolver:  Solving for k, Initial residual = 0.0233711, Final residual = 0.000819651, No Iterations 2
ExecutionTime = 0.789087 s  ClockTime = 1 s

Time = 40s

smoothSolver:  Solving for Ux, Initial residual = 0.0120188, Final residual = 0.000888003, No Iterations 5
smoothSolver:  Solving for Uy, Initial residual = 0.0360562, Final residual = 0.00270615, No Iterations 5
GAMG:  Solving for p, Initial residual = 0.070646, Final residual = 0.00702724, No Iterations 3
time step continuity errors : sum local = 0.629237, global = -0.0986793, cumulative = -0.994633
smoothSolver:  Solving for omega, Initial residual = 0.671071, Final residual = 0.000747443, No Iterations 1
smoothSolver:  Solving for k, Initial residual = 0.0178217, Final residual = 0.000847129, No Iterations 2
ExecutionTime = 0.804194 s  ClockTime = 1 s

Time = 41s

smoothSolver:  Solving for Ux, Initial residual = 0.0120386, Final residual = 0.000889552, No Iterations 5
smoothSolver:  Solving for Uy, Initial residual = 0.0363796, Final residual = 0.00271037, No Iterations 5
GAMG:  Solving for p, Initial residual = 0.0708284, Final residual = 0.0066939, No Iterations 3
time step continuity errors : sum local = 0.619495, global = 0.109633, cumulative = -0.885
smoothSolver:  Solving for omega, Initial residual = 0.197609, Final residual = 0.0193427, No Iterations 1
smoothSolver:  Solving for k, Initial residual = 0.023997, Final residual = 0.000863161, No Iterations 2
ExecutionTime = 0.819346 s  ClockTime = 1 s

Time = 42s

smoothSolver:  Solving for Ux, Initial residual = 0.0121753, Final residual = 0.000895171, No Iterations 5
smoothSolver:  Solving for Uy, Initial residual = 0.0365327, Final residual = 0.00272116, No Iterations 5
GAMG:  Solving for p, Initial residual = 0.070804, Final residual = 0.00477471, No Iterations 4
time step continuity errors : sum local = 0.45036, global = 0.0549643, cumulative = -0.830036
smoothSolver:  Solving for omega, Initial residual = 0.735687, Final residual = 0.000441026, No Iterations 1
smoothSolver:  Solving for k, Initial residual = 0.017354, Final residual = 0.000889776, No Iterations 2
ExecutionTime = 0.835705 s  ClockTime = 1 s

Time = 43s

smoothSolver:  Solving for Ux, Initial residual = 0.0125079, Final residual = 0.000891781, No Iterations 5
smoothSolver:  Solving for Uy, Initial residual = 0.0368722, Final residual = 0.00273714, No Iterations 5
GAMG:  Solving for p, Initial residual = 0.0697235, Final residual = 0.00662778, No Iterations 3
time step continuity errors : sum local = 0.645347, global = -0.0985079, cumulative = -0.928544
smoothSolver:  Solving for omega, Initial residual = 0.367878, Final residual = 0.0253716, No Iterations 5
smoothSolver:  Solving for k, Initial residual = 0.0194068, Final residual = 0.000854443, No Iterations 2
ExecutionTime = 0.851399 s  ClockTime = 1 s

Time = 44s

smoothSolver:  Solving for Ux, Initial residual = 0.0123322, Final residual = 0.000894277, No Iterations 5
smoothSolver:  Solving for Uy, Initial residual = 0.0367307, Final residual = 0.00274219, No Iterations 5
GAMG:  Solving for p, Initial residual = 0.0684748, Final residual = 0.00637498, No Iterations 3
time step continuity errors : sum local = 0.645973, global = 0.106841, cumulative = -0.821703
smoothSolver:  Solving for omega, Initial residual = 0.709963, Final residual = 0.00306278, No Iterations 1
smoothSolver:  Solving for k, Initial residual = 0.0167129, Final residual = 0.000866438, No Iterations 2
ExecutionTime = 0.867061 s  ClockTime = 1 s

Time = 45s

smoothSolver:  Solving for Ux, Initial residual = 0.01242, Final residual = 0.000891018, No Iterations 5
smoothSolver:  Solving for Uy, Initial residual = 0.0367653, Final residual = 0.00274924, No Iterations 5
GAMG:  Solving for p, Initial residual = 0.0696873, Final residual = 0.00692967, No Iterations 3
time step continuity errors : sum local = 0.713537, global = -0.0962187, cumulative = -0.917921
smoothSolver:  Solving for omega, Initial residual = 0.796798, Final residual = 7.14525e-05, No Iterations 1
smoothSolver:  Solving for k, Initial residual = 0.0166738, Final residual = 0.000966114, No Iterations 2
bounding k, min: -0.00196844 max: 4.16976 average: 0.873318
ExecutionTime = 0.882686 s  ClockTime = 1 s

Time = 46s

smoothSolver:  Solving for Ux, Initial residual = 0.0125126, Final residual = 0.000885356, No Iterations 5
smoothSolver:  Solving for Uy, Initial residual = 0.0368833, Final residual = 0.0027611, No Iterations 5
GAMG:  Solving for p, Initial residual = 0.0678316, Final residual = 0.00650545, No Iterations 3
time step continuity errors : sum local = 0.694288, global = 0.107192, cumulative = -0.810729
smoothSolver:  Solving for omega, Initial residual = 0.642395, Final residual = 0.038977, No Iterations 2
smoothSolver:  Solving for k, Initial residual = 0.0209015, Final residual = 0.000804931, No Iterations 2
bounding k, min: -0.00116818 max: 4.51538 average: 0.884724
ExecutionTime = 0.899222 s  ClockTime = 1 s

Time = 47s

smoothSolver:  Solving for Ux, Initial residual = 0.0130082, Final residual = 0.000882135, No Iterations 5
smoothSolver:  Solving for Uy, Initial residual = 0.0373474, Final residual = 0.00278237, No Iterations 5
GAMG:  Solving for p, Initial residual = 0.0679595, Final residual = 0.00674949, No Iterations 3
time step continuity errors : sum local = 0.733673, global = -0.0964781, cumulative = -0.907207
smoothSolver:  Solving for omega, Initial residual = 0.811234, Final residual = 0.00165987, No Iterations 1
smoothSolver:  Solving for k, Initial residual = 0.0471635, Final residual = 0.00259182, No Iterations 1
bounding k, min: -0.00434889 max: 4.78029 average: 0.894496
ExecutionTime = 0.914196 s  ClockTime = 1 s

Time = 48s

smoothSolver:  Solving for Ux, Initial residual = 0.0128361, Final residual = 0.000884163, No Iterations 5
smoothSolver:  Solving for Uy, Initial residual = 0.0376015, Final residual = 0.00280398, No Iterations 5
GAMG:  Solving for p, Initial residual = 0.0670776, Final residual = 0.00626491, No Iterations 3
time step continuity errors : sum local = 0.70569, global = 0.104922, cumulative = -0.802285
smoothSolver:  Solving for omega, Initial residual = 0.816127, Final residual = 5.09506e-06, No Iterations 1
smoothSolver:  Solving for k, Initial residual = 0.0181068, Final residual = 0.00109954, No Iterations 2
ExecutionTime = 0.929642 s  ClockTime = 1 s

Time = 49s

smoothSolver:  Solving for Ux, Initial residual = 0.0128739, Final residual = 0.000898748, No Iterations 5
smoothSolver:  Solving for Uy, Initial residual = 0.0378257, Final residual = 0.00283772, No Iterations 5
GAMG:  Solving for p, Initial residual = 0.0672232, Final residual = 0.00644473, No Iterations 3
time step continuity errors : sum local = 0.736457, global = -0.0973811, cumulative = -0.899666
smoothSolver:  Solving for omega, Initial residual = 0.782639, Final residual = 0.000416794, No Iterations 1
smoothSolver:  Solving for k, Initial residual = 0.0221677, Final residual = 0.00111522, No Iterations 2
ExecutionTime = 0.944716 s  ClockTime = 1 s

Time = 50s

smoothSolver:  Solving for Ux, Initial residual = 0.0131317, Final residual = 0.000914302, No Iterations 5
smoothSolver:  Solving for Uy, Initial residual = 0.0384785, Final residual = 0.00287962, No Iterations 5
GAMG:  Solving for p, Initial residual = 0.0677352, Final residual = 0.00611923, No Iterations 3
time step continuity errors : sum local = 0.717901, global = 0.103139, cumulative = -0.796528
smoothSolver:  Solving for omega, Initial residual = 0.748589, Final residual = 0.000279016, No Iterations 1
smoothSolver:  Solving for k, Initial residual = 0.0168322, Final residual = 0.00121007, No Iterations 2
ExecutionTime = 0.959586 s  ClockTime = 1 s

Time = 51s

smoothSolver:  Solving for Ux, Initial residual = 0.013242, Final residual = 0.000933562, No Iterations 5
smoothSolver:  Solving for Uy, Initial residual = 0.0390955, Final residual = 0.00293755, No Iterations 5
GAMG:  Solving for p, Initial residual = 0.0683973, Final residual = 0.006211, No Iterations 3
time step continuity errors : sum local = 0.736485, global = -0.0968223, cumulative = -0.89335
smoothSolver:  Solving for omega, Initial residual = 0.144486, Final residual = 0.00246751, No Iterations 1
smoothSolver:  Solving for k, Initial residual = 0.0170941, Final residual = 0.00124386, No Iterations 2
ExecutionTime = 0.974303 s  ClockTime = 1 s

Time = 52s

smoothSolver:  Solving for Ux, Initial residual = 0.0136279, Final residual = 0.000962771, No Iterations 5
smoothSolver:  Solving for Uy, Initial residual = 0.039749, Final residual = 0.00300597, No Iterations 5
GAMG:  Solving for p, Initial residual = 0.0691239, Final residual = 0.00598395, No Iterations 3
time step continuity errors : sum local = 0.725866, global = 0.100326, cumulative = -0.793024
smoothSolver:  Solving for omega, Initial residual = 0.0213809, Final residual = 0.00104259, No Iterations 2
smoothSolver:  Solving for k, Initial residual = 0.0173176, Final residual = 0.00126158, No Iterations 2
ExecutionTime = 0.989596 s  ClockTime = 1 s

Time = 53s

smoothSolver:  Solving for Ux, Initial residual = 0.0139476, Final residual = 0.000988705, No Iterations 5
smoothSolver:  Solving for Uy, Initial residual = 0.0404075, Final residual = 0.00308316, No Iterations 5
GAMG:  Solving for p, Initial residual = 0.0704627, Final residual = 0.00609427, No Iterations 3
time step continuity errors : sum local = 0.744436, global = -0.0967605, cumulative = -0.889785
smoothSolver:  Solving for omega, Initial residual = 0.010531, Final residual = 0.000385941, No Iterations 2
smoothSolver:  Solving for k, Initial residual = 0.0171045, Final residual = 0.00127531, No Iterations 2
ExecutionTime = 1.00485 s  ClockTime = 1 s

Time = 54s

smoothSolver:  Solving for Ux, Initial residual = 0.0142462, Final residual = 0.00100705, No Iterations 5
smoothSolver:  Solving for Uy, Initial residual = 0.0412145, Final residual = 0.00316344, No Iterations 5
GAMG:  Solving for p, Initial residual = 0.0716885, Final residual = 0.00600332, No Iterations 3
time step continuity errors : sum local = 0.746555, global = 0.100632, cumulative = -0.789152
smoothSolver:  Solving for omega, Initial residual = 0.0365759, Final residual = 0.000952286, No Iterations 2
smoothSolver:  Solving for k, Initial residual = 0.017899, Final residual = 0.00124354, No Iterations 2
ExecutionTime = 1.02047 s  ClockTime = 1 s

Time = 55s

smoothSolver:  Solving for Ux, Initial residual = 0.0145172, Final residual = 0.00102321, No Iterations 5
smoothSolver:  Solving for Uy, Initial residual = 0.0421077, Final residual = 0.00325266, No Iterations 5
GAMG:  Solving for p, Initial residual = 0.0733439, Final residual = 0.00616821, No Iterations 3
time step continuity errors : sum local = 0.769652, global = -0.0971302, cumulative = -0.886283
smoothSolver:  Solving for omega, Initial residual = 0.230255, Final residual = 0.00120203, No Iterations 1
smoothSolver:  Solving for k, Initial residual = 0.0175002, Final residual = 0.00129719, No Iterations 2
ExecutionTime = 1.03469 s  ClockTime = 1 s

Time = 56s

smoothSolver:  Solving for Ux, Initial residual = 0.0147449, Final residual = 0.00103427, No Iterations 5
smoothSolver:  Solving for Uy, Initial residual = 0.0429943, Final residual = 0.00334354, No Iterations 5
GAMG:  Solving for p, Initial residual = 0.0749175, Final residual = 0.00605198, No Iterations 3
time step continuity errors : sum local = 0.766534, global = 0.0997379, cumulative = -0.786545
smoothSolver:  Solving for omega, Initial residual = 0.0136423, Final residual = 0.000372131, No Iterations 2
smoothSolver:  Solving for k, Initial residual = 0.017931, Final residual = 0.00134228, No Iterations 2
ExecutionTime = 1.04975 s  ClockTime = 1 s

Time = 57s

smoothSolver:  Solving for Ux, Initial residual = 0.0149071, Final residual = 0.00104112, No Iterations 5
smoothSolver:  Solving for Uy, Initial residual = 0.0438641, Final residual = 0.00343499, No Iterations 5
GAMG:  Solving for p, Initial residual = 0.0761536, Final residual = 0.00622705, No Iterations 3
time step continuity errors : sum local = 0.790607, global = -0.0934229, cumulative = -0.879968
smoothSolver:  Solving for omega, Initial residual = 0.0110468, Final residual = 0.000732503, No Iterations 2
smoothSolver:  Solving for k, Initial residual = 0.0181715, Final residual = 0.00136103, No Iterations 2
ExecutionTime = 1.06494 s  ClockTime = 1 s

Time = 58s

smoothSolver:  Solving for Ux, Initial residual = 0.0150942, Final residual = 0.00104824, No Iterations 5
smoothSolver:  Solving for Uy, Initial residual = 0.0447276, Final residual = 0.00351717, No Iterations 5
GAMG:  Solving for p, Initial residual = 0.0771764, Final residual = 0.00612492, No Iterations 3
time step continuity errors : sum local = 0.789677, global = 0.100655, cumulative = -0.779313
smoothSolver:  Solving for omega, Initial residual = 0.0109279, Final residual = 0.000318795, No Iterations 2
smoothSolver:  Solving for k, Initial residual = 0.018648, Final residual = 0.0013728, No Iterations 2
ExecutionTime = 1.08072 s  ClockTime = 1 s

Time = 59s

smoothSolver:  Solving for Ux, Initial residual = 0.01519, Final residual = 0.00105045, No Iterations 5
smoothSolver:  Solving for Uy, Initial residual = 0.0455205, Final residual = 0.00359444, No Iterations 5
GAMG:  Solving for p, Initial residual = 0.0787764, Final residual = 0.00642722, No Iterations 3
time step continuity errors : sum local = 0.830042, global = -0.0958506, cumulative = -0.875163
smoothSolver:  Solving for omega, Initial residual = 0.00777075, Final residual = 0.00037991, No Iterations 2
smoothSolver:  Solving for k, Initial residual = 0.018531, Final residual = 0.00139399, No Iterations 2
ExecutionTime = 1.0963 s  ClockTime = 1 s

Time = 60s

smoothSolver:  Solving for Ux, Initial residual = 0.0152489, Final residual = 0.00104973, No Iterations 5
smoothSolver:  Solving for Uy, Initial residual = 0.0461952, Final residual = 0.00366114, No Iterations 5
GAMG:  Solving for p, Initial residual = 0.0800639, Final residual = 0.00640187, No Iterations 3
time step continuity errors : sum local = 0.836515, global = 0.107592, cumulative = -0.767572
smoothSolver:  Solving for omega, Initial residual = 0.00757397, Final residual = 0.000328365, No Iterations 2
smoothSolver:  Solving for k, Initial residual = 0.0188834, Final residual = 0.001424, No Iterations 2
ExecutionTime = 1.11169 s  ClockTime = 1 s

Time = 61s

smoothSolver:  Solving for Ux, Initial residual = 0.015279, Final residual = 0.00104858, No Iterations 5
smoothSolver:  Solving for Uy, Initial residual = 0.0467952, Final residual = 0.00371939, No Iterations 5
GAMG:  Solving for p, Initial residual = 0.0817532, Final residual = 0.00700738, No Iterations 3
time step continuity errors : sum local = 0.915938, global = -0.101695, cumulative = -0.869266
smoothSolver:  Solving for omega, Initial residual = 0.0816967, Final residual = 0.00166287, No Iterations 2
smoothSolver:  Solving for k, Initial residual = 0.0208168, Final residual = 0.00143621, No Iterations 2
ExecutionTime = 1.12683 s  ClockTime = 1 s

Time = 62s

smoothSolver:  Solving for Ux, Initial residual = 0.0153241, Final residual = 0.00104596, No Iterations 5
smoothSolver:  Solving for Uy, Initial residual = 0.0472411, Final residual = 0.00376497, No Iterations 5
GAMG:  Solving for p, Initial residual = 0.0823861, Final residual = 0.0069698, No Iterations 3
time step continuity errors : sum local = 0.924228, global = 0.114124, cumulative = -0.755143
smoothSolver:  Solving for omega, Initial residual = 0.581241, Final residual = 0.000606376, No Iterations 1
smoothSolver:  Solving for k, Initial residual = 0.0195037, Final residual = 0.00150339, No Iterations 2
ExecutionTime = 1.14226 s  ClockTime = 1 s

Time = 63s

smoothSolver:  Solving for Ux, Initial residual = 0.0152747, Final residual = 0.00104174, No Iterations 5
smoothSolver:  Solving for Uy, Initial residual = 0.0476294, Final residual = 0.0038008, No Iterations 5
GAMG:  Solving for p, Initial residual = 0.0840315, Final residual = 0.00742658, No Iterations 3
time step continuity errors : sum local = 0.9883, global = -0.108342, cumulative = -0.863485
smoothSolver:  Solving for omega, Initial residual = 0.0353245, Final residual = 0.00152641, No Iterations 1
smoothSolver:  Solving for k, Initial residual = 0.0196625, Final residual = 0.00155672, No Iterations 2
ExecutionTime = 1.15739 s  ClockTime = 1 s

Time = 64s

smoothSolver:  Solving for Ux, Initial residual = 0.0152221, Final residual = 0.00103568, No Iterations 5
smoothSolver:  Solving for Uy, Initial residual = 0.0478578, Final residual = 0.00381812, No Iterations 5
GAMG:  Solving for p, Initial residual = 0.0853783, Final residual = 0.00745358, No Iterations 3
time step continuity errors : sum local = 1.00929, global = 0.116641, cumulative = -0.746844
smoothSolver:  Solving for omega, Initial residual = 0.011137, Final residual = 0.000616735, No Iterations 2
smoothSolver:  Solving for k, Initial residual = 0.0199197, Final residual = 0.00157747, No Iterations 2
ExecutionTime = 1.17315 s  ClockTime = 1 s

Time = 65s

smoothSolver:  Solving for Ux, Initial residual = 0.0152522, Final residual = 0.00103463, No Iterations 5
smoothSolver:  Solving for Uy, Initial residual = 0.048033, Final residual = 0.00382461, No Iterations 5
GAMG:  Solving for p, Initial residual = 0.0868582, Final residual = 0.00768917, No Iterations 3
time step continuity errors : sum local = 1.0498, global = -0.121225, cumulative = -0.868069
smoothSolver:  Solving for omega, Initial residual = 0.0104981, Final residual = 0.000430441, No Iterations 2
smoothSolver:  Solving for k, Initial residual = 0.0198486, Final residual = 0.00155154, No Iterations 2
ExecutionTime = 1.18868 s  ClockTime = 1 s

Time = 66s

smoothSolver:  Solving for Ux, Initial residual = 0.0152589, Final residual = 0.00103392, No Iterations 5
smoothSolver:  Solving for Uy, Initial residual = 0.0480931, Final residual = 0.00381407, No Iterations 5
GAMG:  Solving for p, Initial residual = 0.0874922, Final residual = 0.00789002, No Iterations 3
time step continuity errors : sum local = 1.09202, global = 0.137097, cumulative = -0.730972
smoothSolver:  Solving for omega, Initial residual = 0.0111525, Final residual = 0.000321897, No Iterations 2
smoothSolver:  Solving for k, Initial residual = 0.0201431, Final residual = 0.00155612, No Iterations 2
ExecutionTime = 1.20491 s  ClockTime = 1 s

Time = 67s

smoothSolver:  Solving for Ux, Initial residual = 0.0152411, Final residual = 0.00103259, No Iterations 5
smoothSolver:  Solving for Uy, Initial residual = 0.0480515, Final residual = 0.00379477, No Iterations 5
GAMG:  Solving for p, Initial residual = 0.0888076, Final residual = 0.0081959, No Iterations 3
time step continuity errors : sum local = 1.13451, global = -0.130409, cumulative = -0.86138
smoothSolver:  Solving for omega, Initial residual = 0.00797126, Final residual = 0.000361098, No Iterations 2
smoothSolver:  Solving for k, Initial residual = 0.0203183, Final residual = 0.00155322, No Iterations 2
ExecutionTime = 1.22045 s  ClockTime = 1 s

Time = 68s

smoothSolver:  Solving for Ux, Initial residual = 0.0152313, Final residual = 0.00103336, No Iterations 5
smoothSolver:  Solving for Uy, Initial residual = 0.0478486, Final residual = 0.00376307, No Iterations 5
GAMG:  Solving for p, Initial residual = 0.0879769, Final residual = 0.00818963, No Iterations 3
time step continuity errors : sum local = 1.1458, global = 0.142179, cumulative = -0.719201
smoothSolver:  Solving for omega, Initial residual = 0.00845285, Final residual = 0.000335832, No Iterations 2
smoothSolver:  Solving for k, Initial residual = 0.0203553, Final residual = 0.00155466, No Iterations 2
ExecutionTime = 1.23606 s  ClockTime = 1 s

Time = 69s

smoothSolver:  Solving for Ux, Initial residual = 0.01519, Final residual = 0.00103653, No Iterations 5
smoothSolver:  Solving for Uy, Initial residual = 0.0475734, Final residual = 0.00371884, No Iterations 5
GAMG:  Solving for p, Initial residual = 0.0869549, Final residual = 0.00841511, No Iterations 3
time step continuity errors : sum local = 1.17488, global = -0.127222, cumulative = -0.846424
smoothSolver:  Solving for omega, Initial residual = 0.00812402, Final residual = 0.000351702, No Iterations 2
smoothSolver:  Solving for k, Initial residual = 0.0201883, Final residual = 0.00151638, No Iterations 2
ExecutionTime = 1.25162 s  ClockTime = 1 s

Time = 70s

smoothSolver:  Solving for Ux, Initial residual = 0.0151513, Final residual = 0.00103523, No Iterations 5
smoothSolver:  Solving for Uy, Initial residual = 0.0472801, Final residual = 0.00366292, No Iterations 5
GAMG:  Solving for p, Initial residual = 0.0859937, Final residual = 0.00823643, No Iterations 3
time step continuity errors : sum local = 1.16413, global = 0.134677, cumulative = -0.711747
smoothSolver:  Solving for omega, Initial residual = 0.12698, Final residual = 0.0038346, No Iterations 2
smoothSolver:  Solving for k, Initial residual = 0.0230611, Final residual = 0.00148132, No Iterations 2
ExecutionTime = 1.26697 s  ClockTime = 1 s

Time = 71s

smoothSolver:  Solving for Ux, Initial residual = 0.0151179, Final residual = 0.00103358, No Iterations 5
smoothSolver:  Solving for Uy, Initial residual = 0.0471721, Final residual = 0.00361717, No Iterations 5
GAMG:  Solving for p, Initial residual = 0.0854362, Final residual = 0.00837305, No Iterations 3
time step continuity errors : sum local = 1.18665, global = -0.118352, cumulative = -0.830099
smoothSolver:  Solving for omega, Initial residual = 0.705297, Final residual = 0.000256481, No Iterations 1
smoothSolver:  Solving for k, Initial residual = 0.020302, Final residual = 0.00147174, No Iterations 2
ExecutionTime = 1.28167 s  ClockTime = 1 s

Time = 72s

smoothSolver:  Solving for Ux, Initial residual = 0.015045, Final residual = 0.00102646, No Iterations 5
smoothSolver:  Solving for Uy, Initial residual = 0.0473206, Final residual = 0.00358771, No Iterations 5
GAMG:  Solving for p, Initial residual = 0.0834998, Final residual = 0.00830485, No Iterations 3
time step continuity errors : sum local = 1.19665, global = 0.125458, cumulative = -0.704641
smoothSolver:  Solving for omega, Initial residual = 0.0778066, Final residual = 0.00220699, No Iterations 1
smoothSolver:  Solving for k, Initial residual = 0.0202322, Final residual = 0.00145793, No Iterations 2
ExecutionTime = 1.29768 s  ClockTime = 1 s

Time = 73s

smoothSolver:  Solving for Ux, Initial residual = 0.0150726, Final residual = 0.00102648, No Iterations 5
smoothSolver:  Solving for Uy, Initial residual = 0.0477018, Final residual = 0.00359546, No Iterations 5
GAMG:  Solving for p, Initial residual = 0.0818054, Final residual = 0.00509144, No Iterations 4
time step continuity errors : sum local = 0.736096, global = 0.063595, cumulative = -0.641046
smoothSolver:  Solving for omega, Initial residual = 0.145579, Final residual = 0.00296984, No Iterations 2
smoothSolver:  Solving for k, Initial residual = 0.0231395, Final residual = 0.00139981, No Iterations 2
ExecutionTime = 1.31393 s  ClockTime = 1 s

Time = 74s

smoothSolver:  Solving for Ux, Initial residual = 0.0150655, Final residual = 0.00102317, No Iterations 5
smoothSolver:  Solving for Uy, Initial residual = 0.0485438, Final residual = 0.00364725, No Iterations 5
GAMG:  Solving for p, Initial residual = 0.0793626, Final residual = 0.00481054, No Iterations 4
time step continuity errors : sum local = 0.700312, global = 0.0606797, cumulative = -0.580366
smoothSolver:  Solving for omega, Initial residual = 0.72252, Final residual = 0.000248651, No Iterations 1
smoothSolver:  Solving for k, Initial residual = 0.0200463, Final residual = 0.00139943, No Iterations 2
ExecutionTime = 1.33014 s  ClockTime = 1 s

Time = 75s

smoothSolver:  Solving for Ux, Initial residual = 0.0150289, Final residual = 0.00102321, No Iterations 5
smoothSolver:  Solving for Uy, Initial residual = 0.0498047, Final residual = 0.00373124, No Iterations 5
GAMG:  Solving for p, Initial residual = 0.0782193, Final residual = 0.00508909, No Iterations 4
time step continuity errors : sum local = 0.741202, global = 0.063665, cumulative = -0.516701
smoothSolver:  Solving for omega, Initial residual = 0.226383, Final residual = 0.00509005, No Iterations 2
smoothSolver:  Solving for k, Initial residual = 0.0240429, Final residual = 0.00133049, No Iterations 2
bounding k, min: -0.00542994 max: 8.20263 average: 1.1625
ExecutionTime = 1.34659 s  ClockTime = 1 s

Time = 76s

smoothSolver:  Solving for Ux, Initial residual = 0.0152449, Final residual = 0.00104319, No Iterations 5
smoothSolver:  Solving for Uy, Initial residual = 0.0514737, Final residual = 0.00386085, No Iterations 5
GAMG:  Solving for p, Initial residual = 0.0778262, Final residual = 0.00544007, No Iterations 4
time step continuity errors : sum local = 0.787997, global = 0.067206, cumulative = -0.449495
smoothSolver:  Solving for omega, Initial residual = 0.781282, Final residual = 0.000155149, No Iterations 1
smoothSolver:  Solving for k, Initial residual = 0.0198301, Final residual = 0.00140802, No Iterations 2
ExecutionTime = 1.36312 s  ClockTime = 1 s

Time = 77s

smoothSolver:  Solving for Ux, Initial residual = 0.0154301, Final residual = 0.00106401, No Iterations 5
smoothSolver:  Solving for Uy, Initial residual = 0.0534816, Final residual = 0.00401996, No Iterations 5
GAMG:  Solving for p, Initial residual = 0.0773876, Final residual = 0.00576796, No Iterations 4
time step continuity errors : sum local = 0.828463, global = 0.0707271, cumulative = -0.378768
smoothSolver:  Solving for omega, Initial residual = 0.236742, Final residual = 0.00198062, No Iterations 1
smoothSolver:  Solving for k, Initial residual = 0.0198263, Final residual = 0.0014616, No Iterations 2
ExecutionTime = 1.37918 s  ClockTime = 1 s

Time = 78s

smoothSolver:  Solving for Ux, Initial residual = 0.0156738, Final residual = 0.00108812, No Iterations 5
smoothSolver:  Solving for Uy, Initial residual = 0.0556504, Final residual = 0.00419919, No Iterations 5
GAMG:  Solving for p, Initial residual = 0.0781415, Final residual = 0.00616268, No Iterations 4
time step continuity errors : sum local = 0.874192, global = 0.0746378, cumulative = -0.30413
smoothSolver:  Solving for omega, Initial residual = 0.0164301, Final residual = 0.000508097, No Iterations 2
smoothSolver:  Solving for k, Initial residual = 0.0199032, Final residual = 0.0015114, No Iterations 2
ExecutionTime = 1.39577 s  ClockTime = 1 s

Time = 79s

smoothSolver:  Solving for Ux, Initial residual = 0.01589, Final residual = 0.00111062, No Iterations 5
smoothSolver:  Solving for Uy, Initial residual = 0.0577469, Final residual = 0.00437909, No Iterations 5
GAMG:  Solving for p, Initial residual = 0.0791679, Final residual = 0.0065338, No Iterations 4
time step continuity errors : sum local = 0.912663, global = 0.0779041, cumulative = -0.226226
smoothSolver:  Solving for omega, Initial residual = 0.00950329, Final residual = 0.000421827, No Iterations 2
smoothSolver:  Solving for k, Initial residual = 0.0197172, Final residual = 0.00154626, No Iterations 2
ExecutionTime = 1.41175 s  ClockTime = 1 s

Time = 80s

smoothSolver:  Solving for Ux, Initial residual = 0.0160273, Final residual = 0.00112686, No Iterations 5
smoothSolver:  Solving for Uy, Initial residual = 0.0596807, Final residual = 0.00454301, No Iterations 5
GAMG:  Solving for p, Initial residual = 0.0810525, Final residual = 0.00689438, No Iterations 4
time step continuity errors : sum local = 0.947307, global = 0.0796265, cumulative = -0.1466
smoothSolver:  Solving for omega, Initial residual = 0.0869364, Final residual = 0.0045167, No Iterations 2
smoothSolver:  Solving for k, Initial residual = 0.0209779, Final residual = 0.00161129, No Iterations 2
ExecutionTime = 1.4286 s  ClockTime = 1 s

Time = 81s

smoothSolver:  Solving for Ux, Initial residual = 0.0161345, Final residual = 0.00113947, No Iterations 5
smoothSolver:  Solving for Uy, Initial residual = 0.0608262, Final residual = 0.00464691, No Iterations 5
GAMG:  Solving for p, Initial residual = 0.0821079, Final residual = 0.00714922, No Iterations 4
time step continuity errors : sum local = 0.970608, global = 0.0784858, cumulative = -0.068114
smoothSolver:  Solving for omega, Initial residual = 0.56078, Final residual = 0.000844088, No Iterations 1
smoothSolver:  Solving for k, Initial residual = 0.0195052, Final residual = 0.00171229, No Iterations 2
ExecutionTime = 1.44493 s  ClockTime = 1 s

Time = 82s

smoothSolver:  Solving for Ux, Initial residual = 0.0161592, Final residual = 0.00114589, No Iterations 5
smoothSolver:  Solving for Uy, Initial residual = 0.0610119, Final residual = 0.00467065, No Iterations 5
GAMG:  Solving for p, Initial residual = 0.0823478, Final residual = 0.00718995, No Iterations 4
time step continuity errors : sum local = 0.97051, global = 0.0741213, cumulative = 0.00600732
smoothSolver:  Solving for omega, Initial residual = 0.158772, Final residual = 0.0146639, No Iterations 1
smoothSolver:  Solving for k, Initial residual = 0.0222108, Final residual = 0.0017571, No Iterations 2
ExecutionTime = 1.46151 s  ClockTime = 1 s

Time = 83s

smoothSolver:  Solving for Ux, Initial residual = 0.0162423, Final residual = 0.00115484, No Iterations 5
smoothSolver:  Solving for Uy, Initial residual = 0.0603852, Final residual = 0.00462429, No Iterations 5
GAMG:  Solving for p, Initial residual = 0.0819706, Final residual = 0.00718243, No Iterations 4
time step continuity errors : sum local = 0.971605, global = 0.0679867, cumulative = 0.073994
smoothSolver:  Solving for omega, Initial residual = 0.723033, Final residual = 0.000286955, No Iterations 1
smoothSolver:  Solving for k, Initial residual = 0.0194763, Final residual = 0.00183941, No Iterations 2
ExecutionTime = 1.47699 s  ClockTime = 1 s

Time = 84s

smoothSolver:  Solving for Ux, Initial residual = 0.0162188, Final residual = 0.00116061, No Iterations 5
smoothSolver:  Solving for Uy, Initial residual = 0.0595497, Final residual = 0.00454762, No Iterations 5
GAMG:  Solving for p, Initial residual = 0.0803811, Final residual = 0.00710305, No Iterations 4
time step continuity errors : sum local = 0.968665, global = 0.062148, cumulative = 0.136142
smoothSolver:  Solving for omega, Initial residual = 0.0994835, Final residual = 0.00234522, No Iterations 1
smoothSolver:  Solving for k, Initial residual = 0.0192419, Final residual = 0.00186757, No Iterations 2
ExecutionTime = 1.49291 s  ClockTime = 1 s

Time = 85s

smoothSolver:  Solving for Ux, Initial residual = 0.0163292, Final residual = 0.00118226, No Iterations 5
smoothSolver:  Solving for Uy, Initial residual = 0.0587607, Final residual = 0.00448137, No Iterations 5
GAMG:  Solving for p, Initial residual = 0.0792372, Final residual = 0.00716258, No Iterations 4
time step continuity errors : sum local = 0.988695, global = 0.0590776, cumulative = 0.19522
smoothSolver:  Solving for omega, Initial residual = 0.0177474, Final residual = 0.00089227, No Iterations 2
smoothSolver:  Solving for k, Initial residual = 0.0190601, Final residual = 0.00183487, No Iterations 2
ExecutionTime = 1.5094 s  ClockTime = 1 s

Time = 86s

smoothSolver:  Solving for Ux, Initial residual = 0.0164209, Final residual = 0.00120432, No Iterations 5
smoothSolver:  Solving for Uy, Initial residual = 0.0584367, Final residual = 0.00444789, No Iterations 5
GAMG:  Solving for p, Initial residual = 0.0777117, Final residual = 0.00737576, No Iterations 4
time step continuity errors : sum local = 1.03187, global = 0.0605304, cumulative = 0.25575
smoothSolver:  Solving for omega, Initial residual = 0.0148342, Final residual = 0.000461379, No Iterations 2
smoothSolver:  Solving for k, Initial residual = 0.0187221, Final residual = 0.00180611, No Iterations 2
ExecutionTime = 1.52615 s  ClockTime = 1 s

Time = 87s

smoothSolver:  Solving for Ux, Initial residual = 0.0165071, Final residual = 0.00122539, No Iterations 5
smoothSolver:  Solving for Uy, Initial residual = 0.0583284, Final residual = 0.00443955, No Iterations 5
GAMG:  Solving for p, Initial residual = 0.0762323, Final residual = 0.00568397, No Iterations 5
time step continuity errors : sum local = 0.807112, global = -0.0531224, cumulative = 0.202628
smoothSolver:  Solving for omega, Initial residual = 0.0118675, Final residual = 0.000592968, No Iterations 2
smoothSolver:  Solving for k, Initial residual = 0.01803, Final residual = 0.00165878, No Iterations 2
ExecutionTime = 1.5425 s  ClockTime = 1 s

Time = 88s

smoothSolver:  Solving for Ux, Initial residual = 0.0166669, Final residual = 0.00124731, No Iterations 5
smoothSolver:  Solving for Uy, Initial residual = 0.0582977, Final residual = 0.00444822, No Iterations 5
GAMG:  Solving for p, Initial residual = 0.0751815, Final residual = 0.00669741, No Iterations 4
time step continuity errors : sum local = 0.961288, global = 0.0446014, cumulative = 0.247229
smoothSolver:  Solving for omega, Initial residual = 0.013305, Final residual = 0.000425432, No Iterations 2
smoothSolver:  Solving for k, Initial residual = 0.0181282, Final residual = 0.00164715, No Iterations 2
ExecutionTime = 1.55896 s  ClockTime = 1 s

Time = 89s

smoothSolver:  Solving for Ux, Initial residual = 0.0168502, Final residual = 0.00127844, No Iterations 5
smoothSolver:  Solving for Uy, Initial residual = 0.0581538, Final residual = 0.00447478, No Iterations 5
GAMG:  Solving for p, Initial residual = 0.0762783, Final residual = 0.00757508, No Iterations 4
time step continuity errors : sum local = 1.09137, global = 0.0613095, cumulative = 0.308539
smoothSolver:  Solving for omega, Initial residual = 0.00915824, Final residual = 0.000482245, No Iterations 2
smoothSolver:  Solving for k, Initial residual = 0.0176512, Final residual = 0.00155218, No Iterations 2
ExecutionTime = 1.57448 s  ClockTime = 1 s

Time = 90s

smoothSolver:  Solving for Ux, Initial residual = 0.0171002, Final residual = 0.00131237, No Iterations 5
smoothSolver:  Solving for Uy, Initial residual = 0.0581475, Final residual = 0.00451763, No Iterations 5
GAMG:  Solving for p, Initial residual = 0.077166, Final residual = 0.00622608, No Iterations 5
time step continuity errors : sum local = 0.899861, global = -0.060652, cumulative = 0.247887
smoothSolver:  Solving for omega, Initial residual = 0.0256808, Final residual = 0.000766032, No Iterations 2
smoothSolver:  Solving for k, Initial residual = 0.0176602, Final residual = 0.00151235, No Iterations 2
ExecutionTime = 1.59138 s  ClockTime = 1 s

Time = 91s

smoothSolver:  Solving for Ux, Initial residual = 0.0174304, Final residual = 0.00134376, No Iterations 5
smoothSolver:  Solving for Uy, Initial residual = 0.0585007, Final residual = 0.00458693, No Iterations 5
GAMG:  Solving for p, Initial residual = 0.0782767, Final residual = 0.00737406, No Iterations 4
time step continuity errors : sum local = 1.06457, global = -0.0429671, cumulative = 0.204919
smoothSolver:  Solving for omega, Initial residual = 0.112675, Final residual = 0.00177159, No Iterations 1
smoothSolver:  Solving for k, Initial residual = 0.0174046, Final residual = 0.00149225, No Iterations 2
ExecutionTime = 1.6068 s  ClockTime = 1 s

Time = 92s

smoothSolver:  Solving for Ux, Initial residual = 0.0177438, Final residual = 0.00137922, No Iterations 5
smoothSolver:  Solving for Uy, Initial residual = 0.0588303, Final residual = 0.00467879, No Iterations 5
GAMG:  Solving for p, Initial residual = 0.0802981, Final residual = 0.00784909, No Iterations 4
time step continuity errors : sum local = 1.13008, global = -0.0749306, cumulative = 0.129989
smoothSolver:  Solving for omega, Initial residual = 0.0113245, Final residual = 0.000504341, No Iterations 2
smoothSolver:  Solving for k, Initial residual = 0.0173403, Final residual = 0.00150541, No Iterations 2
ExecutionTime = 1.62313 s  ClockTime = 1 s

Time = 93s

smoothSolver:  Solving for Ux, Initial residual = 0.0180349, Final residual = 0.00141427, No Iterations 5
smoothSolver:  Solving for Uy, Initial residual = 0.0594638, Final residual = 0.004786, No Iterations 5
GAMG:  Solving for p, Initial residual = 0.0820222, Final residual = 0.00662039, No Iterations 5
time step continuity errors : sum local = 0.943886, global = 0.0776567, cumulative = 0.207646
smoothSolver:  Solving for omega, Initial residual = 0.00810399, Final residual = 0.000449623, No Iterations 2
smoothSolver:  Solving for k, Initial residual = 0.017173, Final residual = 0.00150309, No Iterations 2
ExecutionTime = 1.63961 s  ClockTime = 1 s

Time = 94s

smoothSolver:  Solving for Ux, Initial residual = 0.01827, Final residual = 0.00144569, No Iterations 5
smoothSolver:  Solving for Uy, Initial residual = 0.0601684, Final residual = 0.00490363, No Iterations 5
GAMG:  Solving for p, Initial residual = 0.0846392, Final residual = 0.00820447, No Iterations 4
time step continuity errors : sum local = 1.14705, global = 0.0254019, cumulative = 0.233048
smoothSolver:  Solving for omega, Initial residual = 0.171585, Final residual = 0.0032416, No Iterations 2
smoothSolver:  Solving for k, Initial residual = 0.0201001, Final residual = 0.00155222, No Iterations 2
ExecutionTime = 1.6557 s  ClockTime = 1 s

Time = 95s

smoothSolver:  Solving for Ux, Initial residual = 0.0185603, Final residual = 0.00147651, No Iterations 5
smoothSolver:  Solving for Uy, Initial residual = 0.0609114, Final residual = 0.0050316, No Iterations 5
GAMG:  Solving for p, Initial residual = 0.087336, Final residual = 0.0081293, No Iterations 4
time step continuity errors : sum local = 1.11218, global = -0.0399329, cumulative = 0.193115
smoothSolver:  Solving for omega, Initial residual = 0.75476, Final residual = 0.00021603, No Iterations 1
smoothSolver:  Solving for k, Initial residual = 0.017769, Final residual = 0.0016823, No Iterations 2
ExecutionTime = 1.67214 s  ClockTime = 1 s

Time = 96s

smoothSolver:  Solving for Ux, Initial residual = 0.018936, Final residual = 0.00150261, No Iterations 5
smoothSolver:  Solving for Uy, Initial residual = 0.0617821, Final residual = 0.00515691, No Iterations 5
GAMG:  Solving for p, Initial residual = 0.0894066, Final residual = 0.00826126, No Iterations 4
time step continuity errors : sum local = 1.10499, global = -0.0669712, cumulative = 0.126143
smoothSolver:  Solving for omega, Initial residual = 0.220645, Final residual = 0.0120979, No Iterations 2
smoothSolver:  Solving for k, Initial residual = 0.018382, Final residual = 0.00179882, No Iterations 2
ExecutionTime = 1.68886 s  ClockTime = 1 s

Time = 97s

smoothSolver:  Solving for Ux, Initial residual = 0.0190241, Final residual = 0.00152595, No Iterations 5
smoothSolver:  Solving for Uy, Initial residual = 0.0623752, Final residual = 0.00527518, No Iterations 5
GAMG:  Solving for p, Initial residual = 0.0901749, Final residual = 0.00832109, No Iterations 4
time step continuity errors : sum local = 1.08262, global = -0.0643191, cumulative = 0.0618244
smoothSolver:  Solving for omega, Initial residual = 0.678914, Final residual = 0.0260042, No Iterations 2
smoothSolver:  Solving for k, Initial residual = 0.0243436, Final residual = 0.00156561, No Iterations 2
ExecutionTime = 1.70487 s  ClockTime = 2 s

Time = 98s

smoothSolver:  Solving for Ux, Initial residual = 0.01907, Final residual = 0.00154655, No Iterations 5
smoothSolver:  Solving for Uy, Initial residual = 0.0626804, Final residual = 0.00538122, No Iterations 5
GAMG:  Solving for p, Initial residual = 0.0916204, Final residual = 0.00808757, No Iterations 4
time step continuity errors : sum local = 1.0138, global = -0.0492719, cumulative = 0.0125525
smoothSolver:  Solving for omega, Initial residual = 0.81613, Final residual = 5.33793e-05, No Iterations 1
smoothSolver:  Solving for k, Initial residual = 0.0261217, Final residual = 0.00170748, No Iterations 2
ExecutionTime = 1.72096 s  ClockTime = 2 s

Time = 99s

smoothSolver:  Solving for Ux, Initial residual = 0.0189926, Final residual = 0.00155722, No Iterations 5
smoothSolver:  Solving for Uy, Initial residual = 0.0631839, Final residual = 0.00547666, No Iterations 5
GAMG:  Solving for p, Initial residual = 0.0935242, Final residual = 0.00780282, No Iterations 4
time step continuity errors : sum local = 0.932446, global = -0.0220272, cumulative = -0.00947475
smoothSolver:  Solving for omega, Initial residual = 0.816684, Final residual = 1.29675e-06, No Iterations 1
smoothSolver:  Solving for k, Initial residual = 0.0196698, Final residual = 0.00111585, No Iterations 3
ExecutionTime = 1.73698 s  ClockTime = 2 s

Time = 100s

smoothSolver:  Solving for Ux, Initial residual = 0.0189381, Final residual = 0.00157151, No Iterations 5
smoothSolver:  Solving for Uy, Initial residual = 0.0636535, Final residual = 0.00556833, No Iterations 5
GAMG:  Solving for p, Initial residual = 0.0958494, Final residual = 0.00791537, No Iterations 4
time step continuity errors : sum local = 0.888802, global = 0.0482536, cumulative = 0.0387789
smoothSolver:  Solving for omega, Initial residual = 0.784914, Final residual = 7.59485e-05, No Iterations 1
smoothSolver:  Solving for k, Initial residual = 0.020359, Final residual = 0.00120319, No Iterations 3
ExecutionTime = 1.7786 s  ClockTime = 2 s

Time = 101s

smoothSolver:  Solving for Ux, Initial residual = 0.01885, Final residual = 0.00158633, No Iterations 5
smoothSolver:  Solving for Uy, Initial residual = 0.0638018, Final residual = 0.00561987, No Iterations 5
GAMG:  Solving for p, Initial residual = 0.0969822, Final residual = 0.00967324, No Iterations 4
time step continuity errors : sum local = 1.03127, global = 0.0952565, cumulative = 0.134035
smoothSolver:  Solving for omega, Initial residual = 0.238767, Final residual = 0.00119944, No Iterations 1
smoothSolver:  Solving for k, Initial residual = 0.020578, Final residual = 0.00124814, No Iterations 3
ExecutionTime = 1.79326 s  ClockTime = 2 s

Time = 102s

smoothSolver:  Solving for Ux, Initial residual = 0.0186913, Final residual = 0.0015934, No Iterations 5
smoothSolver:  Solving for Uy, Initial residual = 0.0636162, Final residual = 0.00562962, No Iterations 5
GAMG:  Solving for p, Initial residual = 0.0984187, Final residual = 0.00797757, No Iterations 5
time step continuity errors : sum local = 0.794578, global = -0.0823039, cumulative = 0.0517314
smoothSolver:  Solving for omega, Initial residual = 0.100556, Final residual = 0.00206109, No Iterations 2
smoothSolver:  Solving for k, Initial residual = 0.0218616, Final residual = 0.0012638, No Iterations 3
ExecutionTime = 1.81023 s  ClockTime = 2 s

Time = 103s

smoothSolver:  Solving for Ux, Initial residual = 0.018507, Final residual = 0.00158796, No Iterations 5
smoothSolver:  Solving for Uy, Initial residual = 0.0635012, Final residual = 0.00563985, No Iterations 5
GAMG:  Solving for p, Initial residual = 0.0954792, Final residual = 0.00776486, No Iterations 4
time step continuity errors : sum local = 0.734429, global = 0.0663706, cumulative = 0.118102
smoothSolver:  Solving for omega, Initial residual = 0.633294, Final residual = 0.00627614, No Iterations 1
smoothSolver:  Solving for k, Initial residual = 0.0231131, Final residual = 0.0012764, No Iterations 3
ExecutionTime = 1.82664 s  ClockTime = 2 s

Time = 104s

smoothSolver:  Solving for Ux, Initial residual = 0.0183024, Final residual = 0.00158332, No Iterations 5
smoothSolver:  Solving for Uy, Initial residual = 0.0633804, Final residual = 0.00565466, No Iterations 5
GAMG:  Solving for p, Initial residual = 0.0955257, Final residual = 0.00869111, No Iterations 4
time step continuity errors : sum local = 0.785323, global = 0.123455, cumulative = 0.241557
smoothSolver:  Solving for omega, Initial residual = 0.729933, Final residual = 0.000282002, No Iterations 1
smoothSolver:  Solving for k, Initial residual = 0.0211471, Final residual = 0.0013266, No Iterations 3
ExecutionTime = 1.84287 s  ClockTime = 2 s

Time = 105s

smoothSolver:  Solving for Ux, Initial residual = 0.0181178, Final residual = 0.00157648, No Iterations 5
smoothSolver:  Solving for Uy, Initial residual = 0.0631976, Final residual = 0.00566974, No Iterations 5
GAMG:  Solving for p, Initial residual = 0.0977016, Final residual = 0.00922316, No Iterations 4
time step continuity errors : sum local = 0.790867, global = 0.144233, cumulative = 0.38579
smoothSolver:  Solving for omega, Initial residual = 0.103831, Final residual = 0.00270543, No Iterations 1
smoothSolver:  Solving for k, Initial residual = 0.0215636, Final residual = 0.00134419, No Iterations 3
ExecutionTime = 1.85909 s  ClockTime = 2 s

Time = 106s

smoothSolver:  Solving for Ux, Initial residual = 0.0178729, Final residual = 0.00155683, No Iterations 5
smoothSolver:  Solving for Uy, Initial residual = 0.0630331, Final residual = 0.00568375, No Iterations 5
GAMG:  Solving for p, Initial residual = 0.0987937, Final residual = 0.00946491, No Iterations 4
time step continuity errors : sum local = 0.775685, global = 0.15098, cumulative = 0.536769
smoothSolver:  Solving for omega, Initial residual = 0.0212653, Final residual = 0.000977874, No Iterations 2
smoothSolver:  Solving for k, Initial residual = 0.0216385, Final residual = 0.00134352, No Iterations 3
ExecutionTime = 1.87554 s  ClockTime = 2 s

Time = 107s

smoothSolver:  Solving for Ux, Initial residual = 0.0176692, Final residual = 0.00153878, No Iterations 5
smoothSolver:  Solving for Uy, Initial residual = 0.0628578, Final residual = 0.00572811, No Iterations 5
GAMG:  Solving for p, Initial residual = 0.0983538, Final residual = 0.0093777, No Iterations 4
time step continuity errors : sum local = 0.742386, global = 0.152526, cumulative = 0.689296
smoothSolver:  Solving for omega, Initial residual = 0.163185, Final residual = 0.00635225, No Iterations 2
smoothSolver:  Solving for k, Initial residual = 0.0238524, Final residual = 0.00131242, No Iterations 3
ExecutionTime = 1.89183 s  ClockTime = 2 s

Time = 108s

smoothSolver:  Solving for Ux, Initial residual = 0.0174117, Final residual = 0.00151231, No Iterations 5
smoothSolver:  Solving for Uy, Initial residual = 0.0629203, Final residual = 0.00580031, No Iterations 5
GAMG:  Solving for p, Initial residual = 0.0963765, Final residual = 0.00896299, No Iterations 4
time step continuity errors : sum local = 0.693265, global = 0.137332, cumulative = 0.826628
smoothSolver:  Solving for omega, Initial residual = 0.752464, Final residual = 0.00138459, No Iterations 1
smoothSolver:  Solving for k, Initial residual = 0.0240814, Final residual = 0.00132639, No Iterations 3
ExecutionTime = 1.9074 s  ClockTime = 2 s

Time = 109s

smoothSolver:  Solving for Ux, Initial residual = 0.017131, Final residual = 0.00148644, No Iterations 5
smoothSolver:  Solving for Uy, Initial residual = 0.0633014, Final residual = 0.00590261, No Iterations 5
GAMG:  Solving for p, Initial residual = 0.0960566, Final residual = 0.00851988, No Iterations 4
time step continuity errors : sum local = 0.651373, global = 0.117959, cumulative = 0.944587
smoothSolver:  Solving for omega, Initial residual = 0.747592, Final residual = 0.000216407, No Iterations 1
smoothSolver:  Solving for k, Initial residual = 0.0220085, Final residual = 0.00137241, No Iterations 3
ExecutionTime = 1.92305 s  ClockTime = 2 s

Time = 110s

smoothSolver:  Solving for Ux, Initial residual = 0.0168912, Final residual = 0.00146179, No Iterations 5
smoothSolver:  Solving for Uy, Initial residual = 0.0637055, Final residual = 0.00600239, No Iterations 5
GAMG:  Solving for p, Initial residual = 0.0939203, Final residual = 0.00829114, No Iterations 4
time step continuity errors : sum local = 0.631533, global = 0.0982603, cumulative = 1.04285
smoothSolver:  Solving for omega, Initial residual = 0.126625, Final residual = 0.00178441, No Iterations 1
smoothSolver:  Solving for k, Initial residual = 0.0221992, Final residual = 0.00137708, No Iterations 3
ExecutionTime = 1.93935 s  ClockTime = 2 s

Time = 111s

smoothSolver:  Solving for Ux, Initial residual = 0.0166677, Final residual = 0.00143857, No Iterations 5
smoothSolver:  Solving for Uy, Initial residual = 0.064363, Final residual = 0.00610556, No Iterations 5
GAMG:  Solving for p, Initial residual = 0.0924507, Final residual = 0.00813007, No Iterations 4
time step continuity errors : sum local = 0.621904, global = 0.0834427, cumulative = 1.12629
smoothSolver:  Solving for omega, Initial residual = 0.0180495, Final residual = 0.00127077, No Iterations 2
smoothSolver:  Solving for k, Initial residual = 0.022461, Final residual = 0.00137359, No Iterations 3
ExecutionTime = 1.95502 s  ClockTime = 2 s

Time = 112s

smoothSolver:  Solving for Ux, Initial residual = 0.0164768, Final residual = 0.00142386, No Iterations 5
smoothSolver:  Solving for Uy, Initial residual = 0.0650885, Final residual = 0.00620593, No Iterations 5
GAMG:  Solving for p, Initial residual = 0.089247, Final residual = 0.00796413, No Iterations 4
time step continuity errors : sum local = 0.615961, global = 0.0755719, cumulative = 1.20186
smoothSolver:  Solving for omega, Initial residual = 0.119455, Final residual = 0.00791031, No Iterations 2
smoothSolver:  Solving for k, Initial residual = 0.0241736, Final residual = 0.00134695, No Iterations 3
ExecutionTime = 1.97149 s  ClockTime = 2 s

Time = 113s

smoothSolver:  Solving for Ux, Initial residual = 0.0163266, Final residual = 0.00141106, No Iterations 5
smoothSolver:  Solving for Uy, Initial residual = 0.0658234, Final residual = 0.00630088, No Iterations 5
GAMG:  Solving for p, Initial residual = 0.0874653, Final residual = 0.00771646, No Iterations 4
time step continuity errors : sum local = 0.605109, global = 0.0754006, cumulative = 1.27726
smoothSolver:  Solving for omega, Initial residual = 0.698161, Final residual = 0.0030409, No Iterations 1
smoothSolver:  Solving for k, Initial residual = 0.0245372, Final residual = 0.0013527, No Iterations 3
ExecutionTime = 1.98707 s  ClockTime = 2 s

Time = 114s

smoothSolver:  Solving for Ux, Initial residual = 0.0161596, Final residual = 0.00139768, No Iterations 5
smoothSolver:  Solving for Uy, Initial residual = 0.0664852, Final residual = 0.00638665, No Iterations 5
GAMG:  Solving for p, Initial residual = 0.0869789, Final residual = 0.00741483, No Iterations 4
time step continuity errors : sum local = 0.590129, global = 0.0809549, cumulative = 1.35822
smoothSolver:  Solving for omega, Initial residual = 0.721992, Final residual = 0.000286215, No Iterations 1
smoothSolver:  Solving for k, Initial residual = 0.0229538, Final residual = 0.00137656, No Iterations 3
ExecutionTime = 2.00273 s  ClockTime = 2 s

Time = 115s

smoothSolver:  Solving for Ux, Initial residual = 0.0161138, Final residual = 0.00139482, No Iterations 5
smoothSolver:  Solving for Uy, Initial residual = 0.0670874, Final residual = 0.00646153, No Iterations 5
GAMG:  Solving for p, Initial residual = 0.0864318, Final residual = 0.00709294, No Iterations 4
time step continuity errors : sum local = 0.571499, global = 0.0846766, cumulative = 1.44289
smoothSolver:  Solving for omega, Initial residual = 0.0933537, Final residual = 0.00167385, No Iterations 1
smoothSolver:  Solving for k, Initial residual = 0.0231077, Final residual = 0.00137655, No Iterations 3
ExecutionTime = 2.01883 s  ClockTime = 2 s

Time = 116s

smoothSolver:  Solving for Ux, Initial residual = 0.0160675, Final residual = 0.00139315, No Iterations 5
smoothSolver:  Solving for Uy, Initial residual = 0.0676035, Final residual = 0.00652108, No Iterations 5
GAMG:  Solving for p, Initial residual = 0.085871, Final residual = 0.00676301, No Iterations 4
time step continuity errors : sum local = 0.552235, global = 0.0828989, cumulative = 1.52579
smoothSolver:  Solving for omega, Initial residual = 0.0159803, Final residual = 0.00101275, No Iterations 2
smoothSolver:  Solving for k, Initial residual = 0.0233476, Final residual = 0.0013711, No Iterations 3
ExecutionTime = 2.03513 s  ClockTime = 2 s

Time = 117s

smoothSolver:  Solving for Ux, Initial residual = 0.016139, Final residual = 0.00139839, No Iterations 5
[...]
smoothSolver:  Solving for Uy, Initial residual = 0.0071122, Final residual = 0.000484211, No Iterations 5
GAMG:  Solving for p, Initial residual = 0.0133273, Final residual = 0.00131662, No Iterations 2
time step continuity errors : sum local = 0.0527973, global = 0.00355383, cumulative = -0.86435
smoothSolver:  Solving for omega, Initial residual = 0.569627, Final residual = 0.000283472, No Iterations 1
smoothSolver:  Solving for k, Initial residual = 0.00239897, Final residual = 0.000100485, No Iterations 2
ExecutionTime = 31.8889 s  ClockTime = 34 s

Time = 1973s

smoothSolver:  Solving for Ux, Initial residual = 0.00054242, Final residual = 3.39354e-05, No Iterations 5
smoothSolver:  Solving for Uy, Initial residual = 0.00698658, Final residual = 0.000484192, No Iterations 5
GAMG:  Solving for p, Initial residual = 0.0126267, Final residual = 0.000735947, No Iterations 3
time step continuity errors : sum local = 0.0294426, global = -0.00338236, cumulative = -0.867733
smoothSolver:  Solving for omega, Initial residual = 0.0276291, Final residual = 0.000524388, No Iterations 1
smoothSolver:  Solving for k, Initial residual = 0.00230874, Final residual = 9.75847e-05, No Iterations 2
ExecutionTime = 31.9034 s  ClockTime = 34 s

Time = 1974s

smoothSolver:  Solving for Ux, Initial residual = 0.000536262, Final residual = 3.34178e-05, No Iterations 5
smoothSolver:  Solving for Uy, Initial residual = 0.00711222, Final residual = 0.000489422, No Iterations 5
GAMG:  Solving for p, Initial residual = 0.0123956, Final residual = 0.000627869, No Iterations 3
time step continuity errors : sum local = 0.0250699, global = -0.00177528, cumulative = -0.869508
smoothSolver:  Solving for omega, Initial residual = 0.00515426, Final residual = 0.000285672, No Iterations 2
smoothSolver:  Solving for k, Initial residual = 0.00228963, Final residual = 9.52364e-05, No Iterations 2
ExecutionTime = 31.9175 s  ClockTime = 34 s

Time = 1975s

smoothSolver:  Solving for Ux, Initial residual = 0.000543129, Final residual = 5.38752e-05, No Iterations 4
smoothSolver:  Solving for Uy, Initial residual = 0.00712569, Final residual = 0.000501974, No Iterations 5
GAMG:  Solving for p, Initial residual = 0.0121485, Final residual = 0.00109713, No Iterations 2
time step continuity errors : sum local = 0.0437979, global = 0.000146539, cumulative = -0.869361
smoothSolver:  Solving for omega, Initial residual = 0.00349329, Final residual = 9.19653e-05, No Iterations 2
smoothSolver:  Solving for k, Initial residual = 0.00231871, Final residual = 0.000101331, No Iterations 2
ExecutionTime = 31.931 s  ClockTime = 34 s

Time = 1976s

smoothSolver:  Solving for Ux, Initial residual = 0.000550716, Final residual = 3.51626e-05, No Iterations 5
smoothSolver:  Solving for Uy, Initial residual = 0.0069512, Final residual = 0.000492284, No Iterations 5
GAMG:  Solving for p, Initial residual = 0.012125, Final residual = 0.000678608, No Iterations 3
time step continuity errors : sum local = 0.0270707, global = -0.00332785, cumulative = -0.872689
smoothSolver:  Solving for omega, Initial residual = 0.00266332, Final residual = 0.000118092, No Iterations 2
smoothSolver:  Solving for k, Initial residual = 0.00229167, Final residual = 9.97109e-05, No Iterations 2
ExecutionTime = 31.9452 s  ClockTime = 34 s

Time = 1977s

smoothSolver:  Solving for Ux, Initial residual = 0.00054082, Final residual = 3.44506e-05, No Iterations 5
smoothSolver:  Solving for Uy, Initial residual = 0.0069786, Final residual = 0.000498198, No Iterations 5
GAMG:  Solving for p, Initial residual = 0.0113829, Final residual = 0.00112837, No Iterations 2
time step continuity errors : sum local = 0.0450562, global = -0.000809264, cumulative = -0.873499
smoothSolver:  Solving for omega, Initial residual = 0.00238362, Final residual = 9.23575e-05, No Iterations 2
smoothSolver:  Solving for k, Initial residual = 0.00227103, Final residual = 0.0001048, No Iterations 2
ExecutionTime = 31.9591 s  ClockTime = 34 s

Time = 1978s

smoothSolver:  Solving for Ux, Initial residual = 0.00054993, Final residual = 3.50484e-05, No Iterations 5
smoothSolver:  Solving for Uy, Initial residual = 0.00695951, Final residual = 0.000495714, No Iterations 5
GAMG:  Solving for p, Initial residual = 0.0116686, Final residual = 0.000656931, No Iterations 3
time step continuity errors : sum local = 0.0262633, global = -0.00287107, cumulative = -0.87637
smoothSolver:  Solving for omega, Initial residual = 0.00304231, Final residual = 8.22819e-05, No Iterations 2
smoothSolver:  Solving for k, Initial residual = 0.00225221, Final residual = 9.97319e-05, No Iterations 2
ExecutionTime = 31.9734 s  ClockTime = 34 s

Time = 1979s

smoothSolver:  Solving for Ux, Initial residual = 0.00053677, Final residual = 3.44565e-05, No Iterations 5
smoothSolver:  Solving for Uy, Initial residual = 0.00703632, Final residual = 0.000508404, No Iterations 5
GAMG:  Solving for p, Initial residual = 0.0119961, Final residual = 0.00114645, No Iterations 2
time step continuity errors : sum local = 0.0458895, global = -0.00132074, cumulative = -0.87769
smoothSolver:  Solving for omega, Initial residual = 0.00815018, Final residual = 0.000213947, No Iterations 2
smoothSolver:  Solving for k, Initial residual = 0.002275, Final residual = 9.63659e-05, No Iterations 2
ExecutionTime = 31.9867 s  ClockTime = 34 s

Time = 1980s

smoothSolver:  Solving for Ux, Initial residual = 0.00055193, Final residual = 3.56369e-05, No Iterations 5
smoothSolver:  Solving for Uy, Initial residual = 0.0069539, Final residual = 0.000502733, No Iterations 5
GAMG:  Solving for p, Initial residual = 0.0127585, Final residual = 0.00072182, No Iterations 3
time step continuity errors : sum local = 0.0289251, global = -0.00218513, cumulative = -0.879876
smoothSolver:  Solving for omega, Initial residual = 0.0142517, Final residual = 0.000479525, No Iterations 1
smoothSolver:  Solving for k, Initial residual = 0.00217051, Final residual = 0.000103439, No Iterations 2
ExecutionTime = 32.0011 s  ClockTime = 34 s

Time = 1981s

smoothSolver:  Solving for Ux, Initial residual = 0.000539481, Final residual = 3.53528e-05, No Iterations 5
smoothSolver:  Solving for Uy, Initial residual = 0.00707656, Final residual = 0.000509776, No Iterations 5
GAMG:  Solving for p, Initial residual = 0.0116383, Final residual = 0.00111909, No Iterations 2
time step continuity errors : sum local = 0.0448009, global = -7.1955e-05, cumulative = -0.879947
smoothSolver:  Solving for omega, Initial residual = 0.00328461, Final residual = 0.000143717, No Iterations 2
smoothSolver:  Solving for k, Initial residual = 0.00221247, Final residual = 9.36502e-05, No Iterations 2
ExecutionTime = 32.0153 s  ClockTime = 34 s

Time = 1982s

smoothSolver:  Solving for Ux, Initial residual = 0.000547208, Final residual = 3.64568e-05, No Iterations 5
smoothSolver:  Solving for Uy, Initial residual = 0.00688427, Final residual = 0.000505772, No Iterations 5
GAMG:  Solving for p, Initial residual = 0.0118659, Final residual = 0.000700019, No Iterations 3
time step continuity errors : sum local = 0.0280344, global = -0.0027387, cumulative = -0.882686
smoothSolver:  Solving for omega, Initial residual = 0.00378751, Final residual = 0.00024658, No Iterations 2
smoothSolver:  Solving for k, Initial residual = 0.00225849, Final residual = 9.85813e-05, No Iterations 2
ExecutionTime = 32.0298 s  ClockTime = 34 s

Time = 1983s

smoothSolver:  Solving for Ux, Initial residual = 0.000560112, Final residual = 3.6103e-05, No Iterations 5
smoothSolver:  Solving for Uy, Initial residual = 0.00711262, Final residual = 0.000512061, No Iterations 5
GAMG:  Solving for p, Initial residual = 0.0133548, Final residual = 0.00130198, No Iterations 2
time step continuity errors : sum local = 0.052187, global = -0.000295888, cumulative = -0.882982
smoothSolver:  Solving for omega, Initial residual = 0.00406195, Final residual = 0.000361295, No Iterations 1
smoothSolver:  Solving for k, Initial residual = 0.00228387, Final residual = 9.63814e-05, No Iterations 2
ExecutionTime = 32.0438 s  ClockTime = 34 s

Time = 1984s

smoothSolver:  Solving for Ux, Initial residual = 0.000561362, Final residual = 3.72462e-05, No Iterations 5
smoothSolver:  Solving for Uy, Initial residual = 0.00685449, Final residual = 0.000505552, No Iterations 5
GAMG:  Solving for p, Initial residual = 0.0134119, Final residual = 0.000766876, No Iterations 3
time step continuity errors : sum local = 0.0307452, global = 0.00149977, cumulative = -0.881482
smoothSolver:  Solving for omega, Initial residual = 0.0027278, Final residual = 0.000149891, No Iterations 2
smoothSolver:  Solving for k, Initial residual = 0.00223429, Final residual = 9.32819e-05, No Iterations 2
ExecutionTime = 32.0594 s  ClockTime = 34 s

Time = 1985s

smoothSolver:  Solving for Ux, Initial residual = 0.000556077, Final residual = 3.70244e-05, No Iterations 5
smoothSolver:  Solving for Uy, Initial residual = 0.0070067, Final residual = 0.000513411, No Iterations 5
GAMG:  Solving for p, Initial residual = 0.0119232, Final residual = 0.000760889, No Iterations 3
time step continuity errors : sum local = 0.0305741, global = -0.0023469, cumulative = -0.883829
smoothSolver:  Solving for omega, Initial residual = 0.1311, Final residual = 0.012941, No Iterations 1
smoothSolver:  Solving for k, Initial residual = 0.00434547, Final residual = 0.000337307, No Iterations 1
ExecutionTime = 32.0752 s  ClockTime = 34 s

Time = 1986s

smoothSolver:  Solving for Ux, Initial residual = 0.000592315, Final residual = 3.7741e-05, No Iterations 5
smoothSolver:  Solving for Uy, Initial residual = 0.00699278, Final residual = 0.000515658, No Iterations 5
GAMG:  Solving for p, Initial residual = 0.0115769, Final residual = 0.000689565, No Iterations 3
time step continuity errors : sum local = 0.0278286, global = 0.00261842, cumulative = -0.881211
smoothSolver:  Solving for omega, Initial residual = 0.720745, Final residual = 0.000197758, No Iterations 1
smoothSolver:  Solving for k, Initial residual = 0.00230297, Final residual = 9.06095e-05, No Iterations 2
ExecutionTime = 32.0909 s  ClockTime = 34 s

Time = 1987s

smoothSolver:  Solving for Ux, Initial residual = 0.000571605, Final residual = 3.84731e-05, No Iterations 5
smoothSolver:  Solving for Uy, Initial residual = 0.00695686, Final residual = 0.000522339, No Iterations 5
GAMG:  Solving for p, Initial residual = 0.0121043, Final residual = 0.000702243, No Iterations 3
time step continuity errors : sum local = 0.0283397, global = -0.00242023, cumulative = -0.883631
smoothSolver:  Solving for omega, Initial residual = 0.0826119, Final residual = 0.00072036, No Iterations 1
smoothSolver:  Solving for k, Initial residual = 0.00235586, Final residual = 9.72485e-05, No Iterations 2
ExecutionTime = 32.1073 s  ClockTime = 34 s

Time = 1988s

smoothSolver:  Solving for Ux, Initial residual = 0.000567986, Final residual = 3.88703e-05, No Iterations 5
smoothSolver:  Solving for Uy, Initial residual = 0.00691329, Final residual = 0.000520863, No Iterations 5
GAMG:  Solving for p, Initial residual = 0.0110749, Final residual = 0.000635581, No Iterations 3
time step continuity errors : sum local = 0.0257208, global = 0.00303296, cumulative = -0.880598
smoothSolver:  Solving for omega, Initial residual = 0.00871388, Final residual = 0.000551817, No Iterations 2
smoothSolver:  Solving for k, Initial residual = 0.00225895, Final residual = 9.72331e-05, No Iterations 2
ExecutionTime = 32.123 s  ClockTime = 34 s

Time = 1989s

smoothSolver:  Solving for Ux, Initial residual = 0.000561125, Final residual = 3.9403e-05, No Iterations 5
smoothSolver:  Solving for Uy, Initial residual = 0.00683235, Final residual = 0.000523013, No Iterations 5
GAMG:  Solving for p, Initial residual = 0.0109593, Final residual = 0.000672893, No Iterations 3
time step continuity errors : sum local = 0.0272731, global = -0.00254759, cumulative = -0.883146
smoothSolver:  Solving for omega, Initial residual = 0.00490666, Final residual = 0.000437878, No Iterations 1
smoothSolver:  Solving for k, Initial residual = 0.00225497, Final residual = 9.47914e-05, No Iterations 2
ExecutionTime = 32.1385 s  ClockTime = 34 s

Time = 1990s

smoothSolver:  Solving for Ux, Initial residual = 0.000580725, Final residual = 3.97873e-05, No Iterations 5
smoothSolver:  Solving for Uy, Initial residual = 0.00693896, Final residual = 0.000520993, No Iterations 5
GAMG:  Solving for p, Initial residual = 0.0117264, Final residual = 0.000682313, No Iterations 3
time step continuity errors : sum local = 0.0276922, global = 0.00274819, cumulative = -0.880397
smoothSolver:  Solving for omega, Initial residual = 0.00321377, Final residual = 0.000153322, No Iterations 2
smoothSolver:  Solving for k, Initial residual = 0.00242635, Final residual = 0.000106114, No Iterations 2
ExecutionTime = 32.1539 s  ClockTime = 34 s

Time = 1991s

smoothSolver:  Solving for Ux, Initial residual = 0.000577585, Final residual = 3.99038e-05, No Iterations 5
smoothSolver:  Solving for Uy, Initial residual = 0.00700183, Final residual = 0.000521275, No Iterations 5
GAMG:  Solving for p, Initial residual = 0.0118622, Final residual = 0.000687046, No Iterations 3
time step continuity errors : sum local = 0.0278236, global = -0.00211879, cumulative = -0.882516
smoothSolver:  Solving for omega, Initial residual = 0.0895496, Final residual = 0.00224044, No Iterations 2
smoothSolver:  Solving for k, Initial residual = 0.0035596, Final residual = 0.000338146, No Iterations 1
ExecutionTime = 32.1698 s  ClockTime = 34 s

Time = 1992s

smoothSolver:  Solving for Ux, Initial residual = 0.000576129, Final residual = 3.9904e-05, No Iterations 5
smoothSolver:  Solving for Uy, Initial residual = 0.00692039, Final residual = 0.000519006, No Iterations 5
GAMG:  Solving for p, Initial residual = 0.0112384, Final residual = 0.00066404, No Iterations 3
time step continuity errors : sum local = 0.026873, global = 0.00252625, cumulative = -0.87999
smoothSolver:  Solving for omega, Initial residual = 0.615357, Final residual = 0.000253552, No Iterations 1
smoothSolver:  Solving for k, Initial residual = 0.00253903, Final residual = 9.53828e-05, No Iterations 2
ExecutionTime = 32.1862 s  ClockTime = 34 s

Time = 1993s

smoothSolver:  Solving for Ux, Initial residual = 0.00057893, Final residual = 4.01218e-05, No Iterations 5
smoothSolver:  Solving for Uy, Initial residual = 0.00687931, Final residual = 0.000516515, No Iterations 5
GAMG:  Solving for p, Initial residual = 0.0118915, Final residual = 0.000685448, No Iterations 3
time step continuity errors : sum local = 0.0276819, global = -0.0017912, cumulative = -0.881781
smoothSolver:  Solving for omega, Initial residual = 0.0885419, Final residual = 0.00673516, No Iterations 1
smoothSolver:  Solving for k, Initial residual = 0.00344335, Final residual = 9.97523e-05, No Iterations 2
ExecutionTime = 32.2024 s  ClockTime = 34 s

Time = 1994s

smoothSolver:  Solving for Ux, Initial residual = 0.000598661, Final residual = 4.01577e-05, No Iterations 5
smoothSolver:  Solving for Uy, Initial residual = 0.00694512, Final residual = 0.000510726, No Iterations 5
GAMG:  Solving for p, Initial residual = 0.0108205, Final residual = 0.000664858, No Iterations 3
time step continuity errors : sum local = 0.0269068, global = 0.00260476, cumulative = -0.879176
smoothSolver:  Solving for omega, Initial residual = 0.499061, Final residual = 0.00105636, No Iterations 1
smoothSolver:  Solving for k, Initial residual = 0.00218213, Final residual = 0.000101961, No Iterations 2
ExecutionTime = 32.2185 s  ClockTime = 34 s

Time = 1995s

smoothSolver:  Solving for Ux, Initial residual = 0.000567506, Final residual = 4.01689e-05, No Iterations 5
smoothSolver:  Solving for Uy, Initial residual = 0.00678894, Final residual = 0.000502818, No Iterations 5
GAMG:  Solving for p, Initial residual = 0.010284, Final residual = 0.000654003, No Iterations 3
time step continuity errors : sum local = 0.0264083, global = -0.00202607, cumulative = -0.881202
smoothSolver:  Solving for omega, Initial residual = 0.0232774, Final residual = 0.00108736, No Iterations 1
smoothSolver:  Solving for k, Initial residual = 0.00229249, Final residual = 9.46951e-05, No Iterations 2
ExecutionTime = 32.2343 s  ClockTime = 34 s

Time = 1996s

smoothSolver:  Solving for Ux, Initial residual = 0.000590043, Final residual = 4.00603e-05, No Iterations 5
smoothSolver:  Solving for Uy, Initial residual = 0.00672983, Final residual = 0.000495781, No Iterations 5
GAMG:  Solving for p, Initial residual = 0.0110277, Final residual = 0.000636146, No Iterations 3
time step continuity errors : sum local = 0.0256698, global = 0.00222889, cumulative = -0.878974
smoothSolver:  Solving for omega, Initial residual = 0.294159, Final residual = 0.0135072, No Iterations 2
smoothSolver:  Solving for k, Initial residual = 0.00793878, Final residual = 0.000342224, No Iterations 1
ExecutionTime = 32.2501 s  ClockTime = 34 s

Time = 1997s

smoothSolver:  Solving for Ux, Initial residual = 0.000587138, Final residual = 4.01652e-05, No Iterations 5
smoothSolver:  Solving for Uy, Initial residual = 0.00666656, Final residual = 0.000488262, No Iterations 5
GAMG:  Solving for p, Initial residual = 0.0111502, Final residual = 0.000642932, No Iterations 3
time step continuity errors : sum local = 0.025948, global = -0.00262286, cumulative = -0.881596
smoothSolver:  Solving for omega, Initial residual = 0.798389, Final residual = 7.51644e-05, No Iterations 1
smoothSolver:  Solving for k, Initial residual = 0.0025896, Final residual = 0.000100312, No Iterations 2
ExecutionTime = 32.2663 s  ClockTime = 34 s

Time = 1998s

smoothSolver:  Solving for Ux, Initial residual = 0.000577549, Final residual = 3.97757e-05, No Iterations 5
smoothSolver:  Solving for Uy, Initial residual = 0.00672798, Final residual = 0.000486228, No Iterations 5
GAMG:  Solving for p, Initial residual = 0.0110672, Final residual = 0.00064464, No Iterations 3
time step continuity errors : sum local = 0.0260026, global = 0.0021163, cumulative = -0.87948
smoothSolver:  Solving for omega, Initial residual = 0.425456, Final residual = 0.0137305, No Iterations 1
smoothSolver:  Solving for k, Initial residual = 0.00552026, Final residual = 0.000386528, No Iterations 1
bounding k, min: -0.000656553 max: 4.96031 average: 1.36389
ExecutionTime = 32.2812 s  ClockTime = 34 s

Time = 1999s

smoothSolver:  Solving for Ux, Initial residual = 0.000587472, Final residual = 3.9523e-05, No Iterations 5
smoothSolver:  Solving for Uy, Initial residual = 0.0066298, Final residual = 0.000480393, No Iterations 5
GAMG:  Solving for p, Initial residual = 0.0112093, Final residual = 0.000666519, No Iterations 3
time step continuity errors : sum local = 0.0268539, global = -0.00300026, cumulative = -0.88248
smoothSolver:  Solving for omega, Initial residual = 0.741715, Final residual = 0.000340918, No Iterations 1
smoothSolver:  Solving for k, Initial residual = 0.00249124, Final residual = 0.00010158, No Iterations 2
ExecutionTime = 32.2971 s  ClockTime = 34 s

Time = 2000s

smoothSolver:  Solving for Ux, Initial residual = 0.000867864, Final residual = 6.55789e-05, No Iterations 4
smoothSolver:  Solving for Uy, Initial residual = 0.0088457, Final residual = 0.000775711, No Iterations 4
GAMG:  Solving for p, Initial residual = 0.0132018, Final residual = 0.000776843, No Iterations 3
time step continuity errors : sum local = 0.0313117, global = 0.00210563, cumulative = -0.880375
smoothSolver:  Solving for omega, Initial residual = 0.649918, Final residual = 0.0498227, No Iterations 3
smoothSolver:  Solving for k, Initial residual = 0.0162991, Final residual = 0.000513321, No Iterations 1
bounding k, min: -0.00105996 max: 4.96074 average: 1.3637
ExecutionTime = 32.3377 s  ClockTime = 34 s

End

